<routes>
    <vehicle id="0" depart="13" type="passenger" departSpeed="5">
        <route edges="road_4_0_1 road_4_1_2 road_3_1_2 road_2_1_2 road_1_1_3"/>
    </vehicle>

    <vehicle id="1" depart="26" type="passenger" departSpeed="5">
        <route edges="road_4_0_1 road_4_1_1 road_4_2_1 road_4_3_1 road_4_4_1"/>
    </vehicle>

    <vehicle id="2" depart="39" type="passenger" departSpeed="5">
        <route edges="road_4_0_1 road_4_1_1 road_4_2_1 road_4_3_1 road_4_4_0"/>
    </vehicle>

    <vehicle id="3" depart="52" type="passenger" departSpeed="5">
        <route edges="road_4_0_1 road_4_1_2 road_3_1_2 road_2_1_2 road_1_1_2"/>
    </vehicle>

    <vehicle id="4" depart="65" type="passenger" departSpeed="5">
        <route edges="road_4_0_1 road_4_1_1 road_4_2_1 road_4_3_0"/>
    </vehicle>

    <vehicle id="5" depart="78" type="passenger" departSpeed="5">
        <route edges="road_4_0_1 road_4_1_0"/>
    </vehicle>

    <vehicle id="6" depart="91" type="passenger" departSpeed="5">
        <route edges="road_4_0_1 road_4_1_1 road_4_2_1 road_4_3_0"/>
    </vehicle>

    <vehicle id="7" depart="104" type="passenger" departSpeed="5">
        <route edges="road_4_0_1 road_4_1_0"/>
    </vehicle>

    <vehicle id="8" depart="117" type="passenger" departSpeed="5">
        <route edges="road_4_0_1 road_4_1_2 road_3_1_3"/>
    </vehicle>

    <vehicle id="9" depart="130" type="passenger" departSpeed="5">
        <route edges="road_4_0_1 road_4_1_1 road_4_2_0"/>
    </vehicle>

    <vehicle id="10" depart="143" type="passenger" departSpeed="5">
        <route edges="road_4_0_1 road_4_1_2 road_3_1_2 road_2_1_1 road_2_2_1 road_2_3_1 road_2_4_1"/>
    </vehicle>

    <vehicle id="11" depart="156" type="passenger" departSpeed="5">
        <route edges="road_4_0_1 road_4_1_1 road_4_2_0"/>
    </vehicle>

    <vehicle id="12" depart="169" type="passenger" departSpeed="5">
        <route edges="road_4_0_1 road_4_1_2 road_3_1_1 road_3_2_0 road_4_2_3 road_4_1_3"/>
    </vehicle>

    <vehicle id="13" depart="182" type="passenger" departSpeed="5">
        <route edges="road_4_0_1 road_4_1_0"/>
    </vehicle>

    <vehicle id="14" depart="195" type="passenger" departSpeed="5">
        <route edges="road_4_0_1 road_4_1_1 road_4_2_1 road_4_3_0"/>
    </vehicle>

    <vehicle id="15" depart="208" type="passenger" departSpeed="5">
        <route edges="road_4_0_1 road_4_1_1 road_4_2_1 road_4_3_1 road_4_4_2 road_3_4_2 road_2_4_2 road_1_4_2"/>
    </vehicle>

    <vehicle id="16" depart="221" type="passenger" departSpeed="5">
        <route edges="road_4_0_1 road_4_1_1 road_4_2_2 road_3_2_2 road_2_2_2 road_1_2_2"/>
    </vehicle>

    <vehicle id="17" depart="234" type="passenger" departSpeed="5">
        <route edges="road_4_0_1 road_4_1_1 road_4_2_1 road_4_3_1 road_4_4_1"/>
    </vehicle>

    <vehicle id="18" depart="247" type="passenger" departSpeed="5">
        <route edges="road_4_0_1 road_4_1_1 road_4_2_2 road_3_2_2 road_2_2_2 road_1_2_2"/>
    </vehicle>

    <vehicle id="19" depart="260" type="passenger" departSpeed="5">
        <route edges="road_4_0_1 road_4_1_0"/>
    </vehicle>

    <vehicle id="20" depart="273" type="passenger" departSpeed="5">
        <route edges="road_4_0_1 road_4_1_1 road_4_2_0"/>
    </vehicle>

    <vehicle id="21" depart="286" type="passenger" departSpeed="5">
        <route edges="road_4_0_1 road_4_1_1 road_4_2_1 road_4_3_0"/>
    </vehicle>

    <vehicle id="22" depart="299" type="passenger" departSpeed="5">
        <route edges="road_4_0_1 road_4_1_1 road_4_2_1 road_4_3_0"/>
    </vehicle>

    <vehicle id="23" depart="300" type="passenger" departSpeed="5">
        <route edges="road_4_0_1 road_4_1_1 road_4_2_0"/>
    </vehicle>

    <vehicle id="24" depart="323" type="passenger" departSpeed="5">
        <route edges="road_4_0_1 road_4_1_0"/>
    </vehicle>

    <vehicle id="25" depart="346" type="passenger" departSpeed="5">
        <route edges="road_4_0_1 road_4_1_0"/>
    </vehicle>

    <vehicle id="26" depart="369" type="passenger" departSpeed="5">
        <route edges="road_4_0_1 road_4_1_1 road_4_2_0"/>
    </vehicle>

    <vehicle id="27" depart="392" type="passenger" departSpeed="5">
        <route edges="road_4_0_1 road_4_1_1 road_4_2_1 road_4_3_0"/>
    </vehicle>

    <vehicle id="28" depart="415" type="passenger" departSpeed="5">
        <route edges="road_4_0_1 road_4_1_1 road_4_2_0"/>
    </vehicle>

    <vehicle id="29" depart="438" type="passenger" departSpeed="5">
        <route edges="road_4_0_1 road_4_1_1 road_4_2_1 road_4_3_1 road_4_4_0"/>
    </vehicle>

    <vehicle id="30" depart="461" type="passenger" departSpeed="5">
        <route edges="road_4_0_1 road_4_1_1 road_4_2_1 road_4_3_1 road_4_4_1"/>
    </vehicle>

    <vehicle id="31" depart="484" type="passenger" departSpeed="5">
        <route edges="road_4_0_1 road_4_1_0"/>
    </vehicle>

    <vehicle id="32" depart="507" type="passenger" departSpeed="5">
        <route edges="road_4_0_1 road_4_1_1 road_4_2_2 road_3_2_2 road_2_2_2 road_1_2_2"/>
    </vehicle>

    <vehicle id="33" depart="530" type="passenger" departSpeed="5">
        <route edges="road_4_0_1 road_4_1_0"/>
    </vehicle>

    <vehicle id="34" depart="553" type="passenger" departSpeed="5">
        <route edges="road_4_0_1 road_4_1_1 road_4_2_0"/>
    </vehicle>

    <vehicle id="35" depart="576" type="passenger" departSpeed="5">
        <route edges="road_4_0_1 road_4_1_1 road_4_2_2 road_3_2_1 road_3_3_1 road_3_4_0 road_4_4_0"/>
    </vehicle>

    <vehicle id="36" depart="599" type="passenger" departSpeed="5">
        <route edges="road_4_0_1 road_4_1_1 road_4_2_0"/>
    </vehicle>

    <vehicle id="37" depart="600" type="passenger" departSpeed="5">
        <route edges="road_4_0_1 road_4_1_1 road_4_2_2 road_3_2_1 road_3_3_0 road_4_3_3"/>
    </vehicle>

    <vehicle id="38" depart="611" type="passenger" departSpeed="5">
        <route edges="road_4_0_1 road_4_1_1 road_4_2_2 road_3_2_3 road_3_1_0 road_4_1_0"/>
    </vehicle>

    <vehicle id="39" depart="622" type="passenger" departSpeed="5">
        <route edges="road_4_0_1 road_4_1_0"/>
    </vehicle>

    <vehicle id="40" depart="633" type="passenger" departSpeed="5">
        <route edges="road_4_0_1 road_4_1_1 road_4_2_1 road_4_3_0"/>
    </vehicle>

    <vehicle id="41" depart="644" type="passenger" departSpeed="5">
        <route edges="road_4_0_1 road_4_1_1 road_4_2_1 road_4_3_1 road_4_4_0"/>
    </vehicle>

    <vehicle id="42" depart="655" type="passenger" departSpeed="5">
        <route edges="road_4_0_1 road_4_1_1 road_4_2_2 road_3_2_1 road_3_3_1 road_3_4_0 road_4_4_0"/>
    </vehicle>

    <vehicle id="43" depart="666" type="passenger" departSpeed="5">
        <route edges="road_4_0_1 road_4_1_0"/>
    </vehicle>

    <vehicle id="44" depart="677" type="passenger" departSpeed="5">
        <route edges="road_4_0_1 road_4_1_0"/>
    </vehicle>

    <vehicle id="45" depart="688" type="passenger" departSpeed="5">
        <route edges="road_4_0_1 road_4_1_1 road_4_2_1 road_4_3_2 road_3_3_2 road_2_3_3 road_2_2_3 road_2_1_3"/>
    </vehicle>

    <vehicle id="46" depart="699" type="passenger" departSpeed="5">
        <route edges="road_4_0_1 road_4_1_0"/>
    </vehicle>

    <vehicle id="47" depart="710" type="passenger" departSpeed="5">
        <route edges="road_4_0_1 road_4_1_1 road_4_2_2 road_3_2_3 road_3_1_2 road_2_1_2 road_1_1_2"/>
    </vehicle>

    <vehicle id="48" depart="721" type="passenger" departSpeed="5">
        <route edges="road_4_0_1 road_4_1_1 road_4_2_0"/>
    </vehicle>

    <vehicle id="49" depart="732" type="passenger" departSpeed="5">
        <route edges="road_4_0_1 road_4_1_1 road_4_2_1 road_4_3_0"/>
    </vehicle>

    <vehicle id="50" depart="743" type="passenger" departSpeed="5">
        <route edges="road_4_0_1 road_4_1_0"/>
    </vehicle>

    <vehicle id="51" depart="754" type="passenger" departSpeed="5">
        <route edges="road_4_0_1 road_4_1_1 road_4_2_1 road_4_3_1 road_4_4_0"/>
    </vehicle>

    <vehicle id="52" depart="765" type="passenger" departSpeed="5">
        <route edges="road_4_0_1 road_4_1_1 road_4_2_2 road_3_2_3 road_3_1_3"/>
    </vehicle>

    <vehicle id="53" depart="776" type="passenger" departSpeed="5">
        <route edges="road_4_0_1 road_4_1_1 road_4_2_1 road_4_3_1 road_4_4_0"/>
    </vehicle>

    <vehicle id="54" depart="787" type="passenger" departSpeed="5">
        <route edges="road_4_0_1 road_4_1_1 road_4_2_1 road_4_3_1 road_4_4_0"/>
    </vehicle>

    <vehicle id="55" depart="798" type="passenger" departSpeed="5">
        <route edges="road_4_0_1 road_4_1_1 road_4_2_1 road_4_3_2 road_3_3_2 road_2_3_2 road_1_3_2"/>
    </vehicle>

    <vehicle id="56" depart="809" type="passenger" departSpeed="5">
        <route edges="road_4_0_1 road_4_1_0"/>
    </vehicle>

    <vehicle id="57" depart="820" type="passenger" departSpeed="5">
        <route edges="road_4_0_1 road_4_1_2 road_3_1_2 road_2_1_1 road_2_2_1 road_2_3_1 road_2_4_1"/>
    </vehicle>

    <vehicle id="58" depart="831" type="passenger" departSpeed="5">
        <route edges="road_4_0_1 road_4_1_0"/>
    </vehicle>

    <vehicle id="59" depart="842" type="passenger" departSpeed="5">
        <route edges="road_4_0_1 road_4_1_1 road_4_2_2 road_3_2_1 road_3_3_0 road_4_3_3"/>
    </vehicle>

    <vehicle id="60" depart="853" type="passenger" departSpeed="5">
        <route edges="road_4_0_1 road_4_1_2 road_3_1_2 road_2_1_2 road_1_1_1 road_1_2_0 road_2_2_0 road_3_2_3 road_3_1_3"/>
    </vehicle>

    <vehicle id="61" depart="864" type="passenger" departSpeed="5">
        <route edges="road_4_0_1 road_4_1_1 road_4_2_1 road_4_3_1 road_4_4_1"/>
    </vehicle>

    <vehicle id="62" depart="875" type="passenger" departSpeed="5">
        <route edges="road_4_0_1 road_4_1_0"/>
    </vehicle>

    <vehicle id="63" depart="886" type="passenger" departSpeed="5">
        <route edges="road_4_0_1 road_4_1_0"/>
    </vehicle>

    <vehicle id="64" depart="897" type="passenger" departSpeed="5">
        <route edges="road_4_0_1 road_4_1_1 road_4_2_0"/>
    </vehicle>

    <vehicle id="65" depart="900" type="passenger" departSpeed="5">
        <route edges="road_4_0_1 road_4_1_1 road_4_2_1 road_4_3_1 road_4_4_1"/>
    </vehicle>

    <vehicle id="66" depart="930" type="passenger" departSpeed="5">
        <route edges="road_4_0_1 road_4_1_2 road_3_1_1 road_3_2_0 road_4_2_1 road_4_3_1 road_4_4_1"/>
    </vehicle>

    <vehicle id="67" depart="960" type="passenger" departSpeed="5">
        <route edges="road_4_0_1 road_4_1_1 road_4_2_0"/>
    </vehicle>

    <vehicle id="68" depart="990" type="passenger" departSpeed="5">
        <route edges="road_4_0_1 road_4_1_1 road_4_2_0"/>
    </vehicle>

    <vehicle id="69" depart="1020" type="passenger" departSpeed="5">
        <route edges="road_4_0_1 road_4_1_1 road_4_2_0"/>
    </vehicle>

    <vehicle id="70" depart="1050" type="passenger" departSpeed="5">
        <route edges="road_4_0_1 road_4_1_0"/>
    </vehicle>

    <vehicle id="71" depart="1080" type="passenger" departSpeed="5">
        <route edges="road_4_0_1 road_4_1_0"/>
    </vehicle>

    <vehicle id="72" depart="1110" type="passenger" departSpeed="5">
        <route edges="road_4_0_1 road_4_1_1 road_4_2_1 road_4_3_0"/>
    </vehicle>

    <vehicle id="73" depart="1140" type="passenger" departSpeed="5">
        <route edges="road_4_0_1 road_4_1_1 road_4_2_1 road_4_3_1 road_4_4_2 road_3_4_2 road_2_4_2 road_1_4_1"/>
    </vehicle>

    <vehicle id="74" depart="1170" type="passenger" departSpeed="5">
        <route edges="road_4_0_1 road_4_1_1 road_4_2_0"/>
    </vehicle>

    <vehicle id="75" depart="1200" type="passenger" departSpeed="5">
        <route edges="road_4_0_1 road_4_1_1 road_4_2_1 road_4_3_0"/>
    </vehicle>

    <vehicle id="76" depart="1217" type="passenger" departSpeed="5">
        <route edges="road_4_0_1 road_4_1_1 road_4_2_2 road_3_2_2 road_2_2_2 road_1_2_1 road_1_3_2"/>
    </vehicle>

    <vehicle id="77" depart="1234" type="passenger" departSpeed="5">
        <route edges="road_4_0_1 road_4_1_0"/>
    </vehicle>

    <vehicle id="78" depart="1251" type="passenger" departSpeed="5">
        <route edges="road_4_0_1 road_4_1_1 road_4_2_0"/>
    </vehicle>

    <vehicle id="79" depart="1268" type="passenger" departSpeed="5">
        <route edges="road_4_0_1 road_4_1_1 road_4_2_0"/>
    </vehicle>

    <vehicle id="80" depart="1285" type="passenger" departSpeed="5">
        <route edges="road_4_0_1 road_4_1_1 road_4_2_1 road_4_3_1 road_4_4_1"/>
    </vehicle>

    <vehicle id="81" depart="1302" type="passenger" departSpeed="5">
        <route edges="road_4_0_1 road_4_1_0"/>
    </vehicle>

    <vehicle id="82" depart="1319" type="passenger" departSpeed="5">
        <route edges="road_4_0_1 road_4_1_0"/>
    </vehicle>

    <vehicle id="83" depart="1336" type="passenger" departSpeed="5">
        <route edges="road_4_0_1 road_4_1_0"/>
    </vehicle>

    <vehicle id="84" depart="1353" type="passenger" departSpeed="5">
        <route edges="road_4_0_1 road_4_1_1 road_4_2_0"/>
    </vehicle>

    <vehicle id="85" depart="1370" type="passenger" departSpeed="5">
        <route edges="road_4_0_1 road_4_1_1 road_4_2_1 road_4_3_1 road_4_4_1"/>
    </vehicle>

    <vehicle id="86" depart="1387" type="passenger" departSpeed="5">
        <route edges="road_4_0_1 road_4_1_1 road_4_2_1 road_4_3_1 road_4_4_1"/>
    </vehicle>

    <vehicle id="87" depart="1404" type="passenger" departSpeed="5">
        <route edges="road_4_0_1 road_4_1_1 road_4_2_0"/>
    </vehicle>

    <vehicle id="88" depart="1421" type="passenger" departSpeed="5">
        <route edges="road_4_0_1 road_4_1_1 road_4_2_1 road_4_3_1 road_4_4_1"/>
    </vehicle>

    <vehicle id="89" depart="1438" type="passenger" departSpeed="5">
        <route edges="road_4_0_1 road_4_1_0"/>
    </vehicle>

    <vehicle id="90" depart="1455" type="passenger" departSpeed="5">
        <route edges="road_4_0_1 road_4_1_0"/>
    </vehicle>

    <vehicle id="91" depart="1472" type="passenger" departSpeed="5">
        <route edges="road_4_0_1 road_4_1_0"/>
    </vehicle>

    <vehicle id="92" depart="1489" type="passenger" departSpeed="5">
        <route edges="road_4_0_1 road_4_1_1 road_4_2_1 road_4_3_1 road_4_4_0"/>
    </vehicle>

    <vehicle id="93" depart="1500" type="passenger" departSpeed="5">
        <route edges="road_4_0_1 road_4_1_1 road_4_2_0"/>
    </vehicle>

    <vehicle id="94" depart="1525" type="passenger" departSpeed="5">
        <route edges="road_4_0_1 road_4_1_1 road_4_2_0"/>
    </vehicle>

    <vehicle id="95" depart="1550" type="passenger" departSpeed="5">
        <route edges="road_4_0_1 road_4_1_1 road_4_2_0"/>
    </vehicle>

    <vehicle id="96" depart="1575" type="passenger" departSpeed="5">
        <route edges="road_4_0_1 road_4_1_1 road_4_2_1 road_4_3_1 road_4_4_2 road_3_4_2 road_2_4_3 road_2_3_2 road_1_3_2"/>
    </vehicle>

    <vehicle id="97" depart="1600" type="passenger" departSpeed="5">
        <route edges="road_4_0_1 road_4_1_0"/>
    </vehicle>

    <vehicle id="98" depart="1625" type="passenger" departSpeed="5">
        <route edges="road_4_0_1 road_4_1_0"/>
    </vehicle>

    <vehicle id="99" depart="1650" type="passenger" departSpeed="5">
        <route edges="road_4_0_1 road_4_1_1 road_4_2_1 road_4_3_1 road_4_4_1"/>
    </vehicle>

    <vehicle id="100" depart="1675" type="passenger" departSpeed="5">
        <route edges="road_4_0_1 road_4_1_1 road_4_2_1 road_4_3_1 road_4_4_1"/>
    </vehicle>

    <vehicle id="101" depart="1700" type="passenger" departSpeed="5">
        <route edges="road_4_0_1 road_4_1_0"/>
    </vehicle>

    <vehicle id="102" depart="1725" type="passenger" departSpeed="5">
        <route edges="road_4_0_1 road_4_1_0"/>
    </vehicle>

    <vehicle id="103" depart="1750" type="passenger" departSpeed="5">
        <route edges="road_4_0_1 road_4_1_1 road_4_2_1 road_4_3_1 road_4_4_1"/>
    </vehicle>

    <vehicle id="104" depart="1775" type="passenger" departSpeed="5">
        <route edges="road_4_0_1 road_4_1_0"/>
    </vehicle>

    <vehicle id="105" depart="1800" type="passenger" departSpeed="5">
        <route edges="road_4_0_1 road_4_1_1 road_4_2_1 road_4_3_0"/>
    </vehicle>

    <vehicle id="106" depart="1833" type="passenger" departSpeed="5">
        <route edges="road_4_0_1 road_4_1_1 road_4_2_1 road_4_3_1 road_4_4_1"/>
    </vehicle>

    <vehicle id="107" depart="1866" type="passenger" departSpeed="5">
        <route edges="road_4_0_1 road_4_1_1 road_4_2_1 road_4_3_1 road_4_4_1"/>
    </vehicle>

    <vehicle id="108" depart="1899" type="passenger" departSpeed="5">
        <route edges="road_4_0_1 road_4_1_1 road_4_2_1 road_4_3_1 road_4_4_0"/>
    </vehicle>

    <vehicle id="109" depart="1932" type="passenger" departSpeed="5">
        <route edges="road_4_0_1 road_4_1_1 road_4_2_1 road_4_3_0"/>
    </vehicle>

    <vehicle id="110" depart="1965" type="passenger" departSpeed="5">
        <route edges="road_4_0_1 road_4_1_2 road_3_1_2 road_2_1_1 road_2_2_0 road_3_2_0 road_4_2_3"/>
    </vehicle>

    <vehicle id="111" depart="1998" type="passenger" departSpeed="5">
        <route edges="road_4_0_1 road_4_1_0"/>
    </vehicle>

    <vehicle id="112" depart="2031" type="passenger" departSpeed="5">
        <route edges="road_4_0_1 road_4_1_0"/>
    </vehicle>

    <vehicle id="113" depart="2064" type="passenger" departSpeed="5">
        <route edges="road_4_0_1 road_4_1_2 road_3_1_2 road_2_1_1 road_2_2_1 road_2_3_0 road_3_3_1 road_3_4_0 road_4_4_3 road_4_3_3 road_4_2_3 road_4_1_3"/>
    </vehicle>

    <vehicle id="114" depart="2097" type="passenger" departSpeed="5">
        <route edges="road_4_0_1 road_4_1_1 road_4_2_0"/>
    </vehicle>

    <vehicle id="115" depart="2100" type="passenger" departSpeed="5">
        <route edges="road_4_0_1 road_4_1_1 road_4_2_0"/>
    </vehicle>

    <vehicle id="116" depart="2115" type="passenger" departSpeed="5">
        <route edges="road_4_0_1 road_4_1_0"/>
    </vehicle>

    <vehicle id="117" depart="2130" type="passenger" departSpeed="5">
        <route edges="road_4_0_1 road_4_1_1 road_4_2_1 road_4_3_0"/>
    </vehicle>

    <vehicle id="118" depart="2145" type="passenger" departSpeed="5">
        <route edges="road_4_0_1 road_4_1_1 road_4_2_0"/>
    </vehicle>

    <vehicle id="119" depart="2160" type="passenger" departSpeed="5">
        <route edges="road_4_0_1 road_4_1_1 road_4_2_0"/>
    </vehicle>

    <vehicle id="120" depart="2175" type="passenger" departSpeed="5">
        <route edges="road_4_0_1 road_4_1_1 road_4_2_1 road_4_3_1 road_4_4_1"/>
    </vehicle>

    <vehicle id="121" depart="2190" type="passenger" departSpeed="5">
        <route edges="road_4_0_1 road_4_1_2 road_3_1_2 road_2_1_1 road_2_2_2 road_1_2_2"/>
    </vehicle>

    <vehicle id="122" depart="2205" type="passenger" departSpeed="5">
        <route edges="road_4_0_1 road_4_1_0"/>
    </vehicle>

    <vehicle id="123" depart="2220" type="passenger" departSpeed="5">
        <route edges="road_4_0_1 road_4_1_1 road_4_2_1 road_4_3_1 road_4_4_1"/>
    </vehicle>

    <vehicle id="124" depart="2235" type="passenger" departSpeed="5">
        <route edges="road_4_0_1 road_4_1_1 road_4_2_0"/>
    </vehicle>

    <vehicle id="125" depart="2250" type="passenger" departSpeed="5">
        <route edges="road_4_0_1 road_4_1_1 road_4_2_1 road_4_3_1 road_4_4_0"/>
    </vehicle>

    <vehicle id="126" depart="2265" type="passenger" departSpeed="5">
        <route edges="road_4_0_1 road_4_1_1 road_4_2_2 road_3_2_2 road_2_2_2 road_1_2_1 road_1_3_1 road_1_4_2"/>
    </vehicle>

    <vehicle id="127" depart="2280" type="passenger" departSpeed="5">
        <route edges="road_4_0_1 road_4_1_1 road_4_2_0"/>
    </vehicle>

    <vehicle id="128" depart="2295" type="passenger" departSpeed="5">
        <route edges="road_4_0_1 road_4_1_1 road_4_2_0"/>
    </vehicle>

    <vehicle id="129" depart="2310" type="passenger" departSpeed="5">
        <route edges="road_4_0_1 road_4_1_1 road_4_2_1 road_4_3_0"/>
    </vehicle>

    <vehicle id="130" depart="2325" type="passenger" departSpeed="5">
        <route edges="road_4_0_1 road_4_1_0"/>
    </vehicle>

    <vehicle id="131" depart="2340" type="passenger" departSpeed="5">
        <route edges="road_4_0_1 road_4_1_2 road_3_1_1 road_3_2_1 road_3_3_0 road_4_3_0"/>
    </vehicle>

    <vehicle id="132" depart="2355" type="passenger" departSpeed="5">
        <route edges="road_4_0_1 road_4_1_1 road_4_2_2 road_3_2_2 road_2_2_2 road_1_2_2"/>
    </vehicle>

    <vehicle id="133" depart="2370" type="passenger" departSpeed="5">
        <route edges="road_4_0_1 road_4_1_0"/>
    </vehicle>

    <vehicle id="134" depart="2385" type="passenger" departSpeed="5">
        <route edges="road_4_0_1 road_4_1_1 road_4_2_0"/>
    </vehicle>

    <vehicle id="135" depart="2400" type="passenger" departSpeed="5">
        <route edges="road_4_0_1 road_4_1_1 road_4_2_0"/>
    </vehicle>

    <vehicle id="136" depart="2413" type="passenger" departSpeed="5">
        <route edges="road_4_0_1 road_4_1_1 road_4_2_0"/>
    </vehicle>

    <vehicle id="137" depart="2426" type="passenger" departSpeed="5">
        <route edges="road_4_0_1 road_4_1_1 road_4_2_1 road_4_3_2 road_3_3_3 road_3_2_0 road_4_2_0"/>
    </vehicle>

    <vehicle id="138" depart="2439" type="passenger" departSpeed="5">
        <route edges="road_4_0_1 road_4_1_1 road_4_2_2 road_3_2_1 road_3_3_1 road_3_4_0 road_4_4_0"/>
    </vehicle>

    <vehicle id="139" depart="2452" type="passenger" departSpeed="5">
        <route edges="road_4_0_1 road_4_1_1 road_4_2_1 road_4_3_1 road_4_4_0"/>
    </vehicle>

    <vehicle id="140" depart="2465" type="passenger" departSpeed="5">
        <route edges="road_4_0_1 road_4_1_1 road_4_2_0"/>
    </vehicle>

    <vehicle id="141" depart="2478" type="passenger" departSpeed="5">
        <route edges="road_4_0_1 road_4_1_2 road_3_1_1 road_3_2_1 road_3_3_1 road_3_4_2 road_2_4_2 road_1_4_3 road_1_3_2"/>
    </vehicle>

    <vehicle id="142" depart="2491" type="passenger" departSpeed="5">
        <route edges="road_4_0_1 road_4_1_0"/>
    </vehicle>

    <vehicle id="143" depart="2504" type="passenger" departSpeed="5">
        <route edges="road_4_0_1 road_4_1_0"/>
    </vehicle>

    <vehicle id="144" depart="2517" type="passenger" departSpeed="5">
        <route edges="road_4_0_1 road_4_1_0"/>
    </vehicle>

    <vehicle id="145" depart="2530" type="passenger" departSpeed="5">
        <route edges="road_4_0_1 road_4_1_1 road_4_2_1 road_4_3_1 road_4_4_1"/>
    </vehicle>

    <vehicle id="146" depart="2543" type="passenger" departSpeed="5">
        <route edges="road_4_0_1 road_4_1_0"/>
    </vehicle>

    <vehicle id="147" depart="2556" type="passenger" departSpeed="5">
        <route edges="road_4_0_1 road_4_1_0"/>
    </vehicle>

    <vehicle id="148" depart="2569" type="passenger" departSpeed="5">
        <route edges="road_4_0_1 road_4_1_0"/>
    </vehicle>

    <vehicle id="149" depart="2582" type="passenger" departSpeed="5">
        <route edges="road_4_0_1 road_4_1_0"/>
    </vehicle>

    <vehicle id="150" depart="2595" type="passenger" departSpeed="5">
        <route edges="road_4_0_1 road_4_1_0"/>
    </vehicle>

    <vehicle id="151" depart="2608" type="passenger" departSpeed="5">
        <route edges="road_4_0_1 road_4_1_1 road_4_2_1 road_4_3_1 road_4_4_1"/>
    </vehicle>

    <vehicle id="152" depart="2621" type="passenger" departSpeed="5">
        <route edges="road_4_0_1 road_4_1_0"/>
    </vehicle>

    <vehicle id="153" depart="2634" type="passenger" departSpeed="5">
        <route edges="road_4_0_1 road_4_1_1 road_4_2_1 road_4_3_0"/>
    </vehicle>

    <vehicle id="154" depart="2647" type="passenger" departSpeed="5">
        <route edges="road_4_0_1 road_4_1_1 road_4_2_0"/>
    </vehicle>

    <vehicle id="155" depart="2660" type="passenger" departSpeed="5">
        <route edges="road_4_0_1 road_4_1_1 road_4_2_1 road_4_3_1 road_4_4_0"/>
    </vehicle>

    <vehicle id="156" depart="2673" type="passenger" departSpeed="5">
        <route edges="road_4_0_1 road_4_1_1 road_4_2_1 road_4_3_1 road_4_4_0"/>
    </vehicle>

    <vehicle id="157" depart="2686" type="passenger" departSpeed="5">
        <route edges="road_4_0_1 road_4_1_2 road_3_1_1 road_3_2_0 road_4_2_1 road_4_3_1 road_4_4_1"/>
    </vehicle>

    <vehicle id="158" depart="2699" type="passenger" departSpeed="5">
        <route edges="road_4_0_1 road_4_1_0"/>
    </vehicle>

    <vehicle id="159" depart="2700" type="passenger" departSpeed="5">
        <route edges="road_4_0_1 road_4_1_1 road_4_2_1 road_4_3_1 road_4_4_1"/>
    </vehicle>

    <vehicle id="160" depart="2727" type="passenger" departSpeed="5">
        <route edges="road_4_0_1 road_4_1_1 road_4_2_2 road_3_2_2 road_2_2_2 road_1_2_2"/>
    </vehicle>

    <vehicle id="161" depart="2754" type="passenger" departSpeed="5">
        <route edges="road_4_0_1 road_4_1_0"/>
    </vehicle>

    <vehicle id="162" depart="2781" type="passenger" departSpeed="5">
        <route edges="road_4_0_1 road_4_1_1 road_4_2_1 road_4_3_1 road_4_4_0"/>
    </vehicle>

    <vehicle id="163" depart="2808" type="passenger" departSpeed="5">
        <route edges="road_4_0_1 road_4_1_0"/>
    </vehicle>

    <vehicle id="164" depart="2835" type="passenger" departSpeed="5">
        <route edges="road_4_0_1 road_4_1_0"/>
    </vehicle>

    <vehicle id="165" depart="2862" type="passenger" departSpeed="5">
        <route edges="road_4_0_1 road_4_1_0"/>
    </vehicle>

    <vehicle id="166" depart="2889" type="passenger" departSpeed="5">
        <route edges="road_4_0_1 road_4_1_1 road_4_2_2 road_3_2_2 road_2_2_2 road_1_2_2"/>
    </vehicle>

    <vehicle id="167" depart="2916" type="passenger" departSpeed="5">
        <route edges="road_4_0_1 road_4_1_1 road_4_2_1 road_4_3_0"/>
    </vehicle>

    <vehicle id="168" depart="2943" type="passenger" departSpeed="5">
        <route edges="road_4_0_1 road_4_1_1 road_4_2_0"/>
    </vehicle>

    <vehicle id="169" depart="2970" type="passenger" departSpeed="5">
        <route edges="road_4_0_1 road_4_1_1 road_4_2_1 road_4_3_1 road_4_4_2 road_3_4_2 road_2_4_2 road_1_4_2"/>
    </vehicle>

    <vehicle id="170" depart="2997" type="passenger" departSpeed="5">
        <route edges="road_4_0_1 road_4_1_1 road_4_2_1 road_4_3_1 road_4_4_0"/>
    </vehicle>

    <vehicle id="171" depart="3000" type="passenger" departSpeed="5">
        <route edges="road_4_0_1 road_4_1_0"/>
    </vehicle>

    <vehicle id="172" depart="3020" type="passenger" departSpeed="5">
        <route edges="road_4_0_1 road_4_1_1 road_4_2_0"/>
    </vehicle>

    <vehicle id="173" depart="3040" type="passenger" departSpeed="5">
        <route edges="road_4_0_1 road_4_1_0"/>
    </vehicle>

    <vehicle id="174" depart="3060" type="passenger" departSpeed="5">
        <route edges="road_4_0_1 road_4_1_1 road_4_2_2 road_3_2_3 road_3_1_0 road_4_1_0"/>
    </vehicle>

    <vehicle id="175" depart="3080" type="passenger" departSpeed="5">
        <route edges="road_4_0_1 road_4_1_1 road_4_2_0"/>
    </vehicle>

    <vehicle id="176" depart="3100" type="passenger" departSpeed="5">
        <route edges="road_4_0_1 road_4_1_1 road_4_2_0"/>
    </vehicle>

    <vehicle id="177" depart="3120" type="passenger" departSpeed="5">
        <route edges="road_4_0_1 road_4_1_0"/>
    </vehicle>

    <vehicle id="178" depart="3140" type="passenger" departSpeed="5">
        <route edges="road_4_0_1 road_4_1_0"/>
    </vehicle>

    <vehicle id="179" depart="3160" type="passenger" departSpeed="5">
        <route edges="road_4_0_1 road_4_1_1 road_4_2_1 road_4_3_1 road_4_4_2 road_3_4_2 road_2_4_2 road_1_4_1"/>
    </vehicle>

    <vehicle id="180" depart="3180" type="passenger" departSpeed="5">
        <route edges="road_4_0_1 road_4_1_1 road_4_2_1 road_4_3_1 road_4_4_2 road_3_4_1"/>
    </vehicle>

    <vehicle id="181" depart="3200" type="passenger" departSpeed="5">
        <route edges="road_4_0_1 road_4_1_1 road_4_2_0"/>
    </vehicle>

    <vehicle id="182" depart="3220" type="passenger" departSpeed="5">
        <route edges="road_4_0_1 road_4_1_1 road_4_2_1 road_4_3_1 road_4_4_0"/>
    </vehicle>

    <vehicle id="183" depart="3240" type="passenger" departSpeed="5">
        <route edges="road_4_0_1 road_4_1_1 road_4_2_1 road_4_3_1 road_4_4_1"/>
    </vehicle>

    <vehicle id="184" depart="3260" type="passenger" departSpeed="5">
        <route edges="road_4_0_1 road_4_1_1 road_4_2_0"/>
    </vehicle>

    <vehicle id="185" depart="3280" type="passenger" departSpeed="5">
        <route edges="road_4_0_1 road_4_1_1 road_4_2_2 road_3_2_2 road_2_2_1 road_2_3_2 road_1_3_2"/>
    </vehicle>

    <vehicle id="186" depart="3300" type="passenger" departSpeed="5">
        <route edges="road_4_0_1 road_4_1_1 road_4_2_1 road_4_3_0"/>
    </vehicle>

    <vehicle id="187" depart="3315" type="passenger" departSpeed="5">
        <route edges="road_4_0_1 road_4_1_1 road_4_2_2 road_3_2_2 road_2_2_1 road_2_3_0 road_3_3_0 road_4_3_0"/>
    </vehicle>

    <vehicle id="188" depart="3330" type="passenger" departSpeed="5">
        <route edges="road_4_0_1 road_4_1_1 road_4_2_1 road_4_3_1 road_4_4_1"/>
    </vehicle>

    <vehicle id="189" depart="3345" type="passenger" departSpeed="5">
        <route edges="road_4_0_1 road_4_1_1 road_4_2_0"/>
    </vehicle>

    <vehicle id="190" depart="3360" type="passenger" departSpeed="5">
        <route edges="road_4_0_1 road_4_1_1 road_4_2_0"/>
    </vehicle>

    <vehicle id="191" depart="3375" type="passenger" departSpeed="5">
        <route edges="road_4_0_1 road_4_1_1 road_4_2_0"/>
    </vehicle>

    <vehicle id="192" depart="3390" type="passenger" departSpeed="5">
        <route edges="road_4_0_1 road_4_1_1 road_4_2_0"/>
    </vehicle>

    <vehicle id="193" depart="3405" type="passenger" departSpeed="5">
        <route edges="road_4_0_1 road_4_1_1 road_4_2_1 road_4_3_0"/>
    </vehicle>

    <vehicle id="194" depart="3420" type="passenger" departSpeed="5">