<?xml version="1.0" encoding="UTF-8"?>

<!-- generated on 2021-06-04 17:20:26 by Eclipse SUMO netedit Version 1.9.2
<configuration xmlns:xsi="http://www.w3.org/2001/XMLSchema-instance" xsi:noNamespaceSchemaLocation="http://sumo.dlr.de/xsd/netconvertConfiguration.xsd">

    <input>
        <sumo-net-file value="E:\UTC\CIKM%202021\tslib-image\4x4%20grid%20network\4x4.net.xml"/>
    </input>

    <output>
        <output-file value="E:\UTC\CIKM%202021\tslib-image\4x4%20grid%20network\4x4.net.xml"/>
    </output>

    <processing>
        <geometry.min-radius.fix.railways value="false"/>
        <geometry.max-grade.fix value="false"/>
        <offset.disable-normalization value="true"/>
        <lefthand value="false"/>
    </processing>

    <junctions>
        <no-turnarounds value="true"/>
        <junctions.corner-detail value="5"/>
        <junctions.limit-turn-speed value="5.5"/>
        <rectangular-lane-cut value="false"/>
    </junctions>

    <pedestrian>
        <walkingareas value="false"/>
    </pedestrian>

    <report>
        <aggregate-warnings value="5"/>
    </report>

</configuration>
-->

<net version="1.9" junctionCornerDetail="5" limitTurnSpeed="5.50" xmlns:xsi="http://www.w3.org/2001/XMLSchema-instance" xsi:noNamespaceSchemaLocation="http://sumo.dlr.de/xsd/net_file.xsd">

    <location netOffset="0.00,0.00" convBoundary="-800.00,-600.00,3200.00,2400.00" origBoundary="-10000000000.00,-10000000000.00,10000000000.00,10000000000.00" projParameter="!"/>

    <edge id=":intersection_1_1_0" function="internal">
        <lane id=":intersection_1_1_0_0" index="0" speed="6.79" length="9.68" width="4.00" shape="-10.00,16.00 -10.38,13.38 -11.50,11.50 -13.37,10.37 -16.00,10.00"/>
    </edge>
    <edge id=":intersection_1_1_1" function="internal">
        <lane id=":intersection_1_1_1_0" index="0" speed="11.11" length="32.00" width="4.00" shape="-10.00,16.00 -10.00,-16.00"/>
        <lane id=":intersection_1_1_1_1" index="1" speed="11.11" length="32.00" width="4.00" shape="-6.00,16.00 -6.00,-16.00"/>
        <lane id=":intersection_1_1_1_2" index="2" speed="11.11" length="32.00" width="4.00" shape="-2.00,16.00 -2.00,-16.00"/>
    </edge>
    <edge id=":intersection_1_1_4" function="internal">
        <lane id=":intersection_1_1_4_0" index="0" speed="11.11" length="9.66" width="4.00" shape="-2.00,16.00 -0.88,8.13 0.00,6.67"/>
    </edge>
    <edge id=":intersection_1_1_20" function="internal">
        <lane id=":intersection_1_1_20_0" index="0" speed="11.11" length="19.37" width="4.00" shape="0.00,6.67 2.50,2.50 8.12,-0.87 16.00,-2.00"/>
    </edge>
    <edge id=":intersection_1_1_5" function="internal">
        <lane id=":intersection_1_1_5_0" index="0" speed="6.79" length="9.68" width="4.00" shape="16.00,10.00 13.37,10.38 11.50,11.50 10.38,13.38 10.00,16.00"/>
    </edge>
    <edge id=":intersection_1_1_6" function="internal">
        <lane id=":intersection_1_1_6_0" index="0" speed="11.11" length="32.00" width="4.00" shape="16.00,10.00 -16.00,10.00"/>
        <lane id=":intersection_1_1_6_1" index="1" speed="11.11" length="32.00" width="4.00" shape="16.00,6.00 -16.00,6.00"/>
        <lane id=":intersection_1_1_6_2" index="2" speed="11.11" length="32.00" width="4.00" shape="16.00,2.00 -16.00,2.00"/>
    </edge>
    <edge id=":intersection_1_1_9" function="internal">
        <lane id=":intersection_1_1_9_0" index="0" speed="11.11" length="9.66" width="4.00" shape="16.00,2.00 8.12,0.87 6.67,-0.00"/>
    </edge>
    <edge id=":intersection_1_1_21" function="internal">
        <lane id=":intersection_1_1_21_0" index="0" speed="11.11" length="19.37" width="4.00" shape="6.67,-0.00 2.50,-2.50 -0.88,-8.13 -2.00,-16.00"/>
    </edge>
    <edge id=":intersection_1_1_10" function="internal">
        <lane id=":intersection_1_1_10_0" index="0" speed="6.79" length="9.68" width="4.00" shape="10.00,-16.00 10.38,-13.38 11.50,-11.50 13.37,-10.38 16.00,-10.00"/>
    </edge>
    <edge id=":intersection_1_1_11" function="internal">
        <lane id=":intersection_1_1_11_0" index="0" speed="11.11" length="32.00" width="4.00" shape="10.00,-16.00 10.00,16.00"/>
        <lane id=":intersection_1_1_11_1" index="1" speed="11.11" length="32.00" width="4.00" shape="6.00,-16.00 6.00,16.00"/>
        <lane id=":intersection_1_1_11_2" index="2" speed="11.11" length="32.00" width="4.00" shape="2.00,-16.00 2.00,16.00"/>
    </edge>
    <edge id=":intersection_1_1_14" function="internal">
        <lane id=":intersection_1_1_14_0" index="0" speed="11.11" length="9.66" width="4.00" shape="2.00,-16.00 0.88,-8.13 -0.00,-6.67"/>
    </edge>
    <edge id=":intersection_1_1_22" function="internal">
        <lane id=":intersection_1_1_22_0" index="0" speed="11.11" length="19.37" width="4.00" shape="-0.00,-6.67 -2.50,-2.50 -8.12,0.88 -16.00,2.00"/>
    </edge>
    <edge id=":intersection_1_1_15" function="internal">
        <lane id=":intersection_1_1_15_0" index="0" speed="6.79" length="9.68" width="4.00" shape="-16.00,-10.00 -13.37,-10.38 -11.50,-11.50 -10.38,-13.38 -10.00,-16.00"/>
    </edge>
    <edge id=":intersection_1_1_16" function="internal">
        <lane id=":intersection_1_1_16_0" index="0" speed="11.11" length="32.00" width="4.00" shape="-16.00,-10.00 16.00,-10.00"/>
        <lane id=":intersection_1_1_16_1" index="1" speed="11.11" length="32.00" width="4.00" shape="-16.00,-6.00 16.00,-6.00"/>
        <lane id=":intersection_1_1_16_2" index="2" speed="11.11" length="32.00" width="4.00" shape="-16.00,-2.00 16.00,-2.00"/>
    </edge>
    <edge id=":intersection_1_1_19" function="internal">
        <lane id=":intersection_1_1_19_0" index="0" speed="11.11" length="9.66" width="4.00" shape="-16.00,-2.00 -8.12,-0.87 -6.67,-0.00"/>
    </edge>
    <edge id=":intersection_1_1_23" function="internal">
        <lane id=":intersection_1_1_23_0" index="0" speed="11.11" length="19.37" width="4.00" shape="-6.67,-0.00 -2.50,2.50 0.88,8.13 2.00,16.00"/>
    </edge>
    <edge id=":intersection_1_2_0" function="internal">
        <lane id=":intersection_1_2_0_0" index="0" speed="6.79" length="9.68" width="4.00" shape="-10.00,616.00 -10.38,613.38 -11.50,611.50 -13.37,610.38 -16.00,610.00"/>
    </edge>
    <edge id=":intersection_1_2_1" function="internal">
        <lane id=":intersection_1_2_1_0" index="0" speed="11.11" length="32.00" width="4.00" shape="-10.00,616.00 -10.00,584.00"/>
        <lane id=":intersection_1_2_1_1" index="1" speed="11.11" length="32.00" width="4.00" shape="-6.00,616.00 -6.00,584.00"/>
        <lane id=":intersection_1_2_1_2" index="2" speed="11.11" length="32.00" width="4.00" shape="-2.00,616.00 -2.00,584.00"/>
    </edge>
    <edge id=":intersection_1_2_4" function="internal">
        <lane id=":intersection_1_2_4_0" index="0" speed="11.11" length="9.66" width="4.00" shape="-2.00,616.00 -0.88,608.12 0.00,606.67"/>
    </edge>
    <edge id=":intersection_1_2_20" function="internal">
        <lane id=":intersection_1_2_20_0" index="0" speed="11.11" length="19.37" width="4.00" shape="0.00,606.67 2.50,602.50 8.12,599.12 16.00,598.00"/>
    </edge>
    <edge id=":intersection_1_2_5" function="internal">
        <lane id=":intersection_1_2_5_0" index="0" speed="6.79" length="9.68" width="4.00" shape="16.00,610.00 13.37,610.38 11.50,611.50 10.38,613.38 10.00,616.00"/>
    </edge>
    <edge id=":intersection_1_2_6" function="internal">
        <lane id=":intersection_1_2_6_0" index="0" speed="11.11" length="32.00" width="4.00" shape="16.00,610.00 -16.00,610.00"/>
        <lane id=":intersection_1_2_6_1" index="1" speed="11.11" length="32.00" width="4.00" shape="16.00,606.00 -16.00,606.00"/>
        <lane id=":intersection_1_2_6_2" index="2" speed="11.11" length="32.00" width="4.00" shape="16.00,602.00 -16.00,602.00"/>
    </edge>
    <edge id=":intersection_1_2_9" function="internal">
        <lane id=":intersection_1_2_9_0" index="0" speed="11.11" length="9.66" width="4.00" shape="16.00,602.00 8.12,600.88 6.67,600.00"/>
    </edge>
    <edge id=":intersection_1_2_21" function="internal">
        <lane id=":intersection_1_2_21_0" index="0" speed="11.11" length="19.37" width="4.00" shape="6.67,600.00 2.50,597.50 -0.88,591.88 -2.00,584.00"/>
    </edge>
    <edge id=":intersection_1_2_10" function="internal">
        <lane id=":intersection_1_2_10_0" index="0" speed="6.79" length="9.68" width="4.00" shape="10.00,584.00 10.38,586.62 11.50,588.50 13.37,589.62 16.00,590.00"/>
    </edge>
    <edge id=":intersection_1_2_11" function="internal">
        <lane id=":intersection_1_2_11_0" index="0" speed="11.11" length="32.00" width="4.00" shape="10.00,584.00 10.00,616.00"/>
        <lane id=":intersection_1_2_11_1" index="1" speed="11.11" length="32.00" width="4.00" shape="6.00,584.00 6.00,616.00"/>
        <lane id=":intersection_1_2_11_2" index="2" speed="11.11" length="32.00" width="4.00" shape="2.00,584.00 2.00,616.00"/>
    </edge>
    <edge id=":intersection_1_2_14" function="internal">
        <lane id=":intersection_1_2_14_0" index="0" speed="11.11" length="9.66" width="4.00" shape="2.00,584.00 0.88,591.88 -0.00,593.33"/>
    </edge>
    <edge id=":intersection_1_2_22" function="internal">
        <lane id=":intersection_1_2_22_0" index="0" speed="11.11" length="19.37" width="4.00" shape="-0.00,593.33 -2.50,597.50 -8.12,600.88 -16.00,602.00"/>
    </edge>
    <edge id=":intersection_1_2_15" function="internal">
        <lane id=":intersection_1_2_15_0" index="0" speed="6.79" length="9.68" width="4.00" shape="-16.00,590.00 -13.37,589.62 -11.50,588.50 -10.38,586.62 -10.00,584.00"/>
    </edge>
    <edge id=":intersection_1_2_16" function="internal">
        <lane id=":intersection_1_2_16_0" index="0" speed="11.11" length="32.00" width="4.00" shape="-16.00,590.00 16.00,590.00"/>
        <lane id=":intersection_1_2_16_1" index="1" speed="11.11" length="32.00" width="4.00" shape="-16.00,594.00 16.00,594.00"/>
        <lane id=":intersection_1_2_16_2" index="2" speed="11.11" length="32.00" width="4.00" shape="-16.00,598.00 16.00,598.00"/>
    </edge>
    <edge id=":intersection_1_2_19" function="internal">
        <lane id=":intersection_1_2_19_0" index="0" speed="11.11" length="9.66" width="4.00" shape="-16.00,598.00 -8.12,599.12 -6.67,600.00"/>
    </edge>
    <edge id=":intersection_1_2_23" function="internal">
        <lane id=":intersection_1_2_23_0" index="0" speed="11.11" length="19.37" width="4.00" shape="-6.67,600.00 -2.50,602.50 0.88,608.12 2.00,616.00"/>
    </edge>
    <edge id=":intersection_1_3_0" function="internal">
        <lane id=":intersection_1_3_0_0" index="0" speed="6.79" length="9.68" width="4.00" shape="-10.00,1216.00 -10.38,1213.38 -11.50,1211.50 -13.37,1210.38 -16.00,1210.00"/>
    </edge>
    <edge id=":intersection_1_3_1" function="internal">
        <lane id=":intersection_1_3_1_0" index="0" speed="11.11" length="32.00" width="4.00" shape="-10.00,1216.00 -10.00,1184.00"/>
        <lane id=":intersection_1_3_1_1" index="1" speed="11.11" length="32.00" width="4.00" shape="-6.00,1216.00 -6.00,1184.00"/>
        <lane id=":intersection_1_3_1_2" index="2" speed="11.11" length="32.00" width="4.00" shape="-2.00,1216.00 -2.00,1184.00"/>
    </edge>
    <edge id=":intersection_1_3_4" function="internal">
        <lane id=":intersection_1_3_4_0" index="0" speed="11.11" length="9.66" width="4.00" shape="-2.00,1216.00 -0.88,1208.12 -0.00,1206.67"/>
    </edge>
    <edge id=":intersection_1_3_20" function="internal">
        <lane id=":intersection_1_3_20_0" index="0" speed="11.11" length="19.37" width="4.00" shape="-0.00,1206.67 2.50,1202.50 8.12,1199.12 16.00,1198.00"/>
    </edge>
    <edge id=":intersection_1_3_5" function="internal">
        <lane id=":intersection_1_3_5_0" index="0" speed="6.79" length="9.68" width="4.00" shape="16.00,1210.00 13.37,1210.38 11.50,1211.50 10.38,1213.38 10.00,1216.00"/>
    </edge>
    <edge id=":intersection_1_3_6" function="internal">
        <lane id=":intersection_1_3_6_0" index="0" speed="11.11" length="32.00" width="4.00" shape="16.00,1210.00 -16.00,1210.00"/>
        <lane id=":intersection_1_3_6_1" index="1" speed="11.11" length="32.00" width="4.00" shape="16.00,1206.00 -16.00,1206.00"/>
        <lane id=":intersection_1_3_6_2" index="2" speed="11.11" length="32.00" width="4.00" shape="16.00,1202.00 -16.00,1202.00"/>
    </edge>
    <edge id=":intersection_1_3_9" function="internal">
        <lane id=":intersection_1_3_9_0" index="0" speed="11.11" length="9.66" width="4.00" shape="16.00,1202.00 8.12,1200.88 6.67,1200.00"/>
    </edge>
    <edge id=":intersection_1_3_21" function="internal">
        <lane id=":intersection_1_3_21_0" index="0" speed="11.11" length="19.37" width="4.00" shape="6.67,1200.00 2.50,1197.50 -0.88,1191.88 -2.00,1184.00"/>
    </edge>
    <edge id=":intersection_1_3_10" function="internal">
        <lane id=":intersection_1_3_10_0" index="0" speed="6.79" length="9.68" width="4.00" shape="10.00,1184.00 10.38,1186.62 11.50,1188.50 13.37,1189.62 16.00,1190.00"/>
    </edge>
    <edge id=":intersection_1_3_11" function="internal">
        <lane id=":intersection_1_3_11_0" index="0" speed="11.11" length="32.00" width="4.00" shape="10.00,1184.00 10.00,1216.00"/>
        <lane id=":intersection_1_3_11_1" index="1" speed="11.11" length="32.00" width="4.00" shape="6.00,1184.00 6.00,1216.00"/>
        <lane id=":intersection_1_3_11_2" index="2" speed="11.11" length="32.00" width="4.00" shape="2.00,1184.00 2.00,1216.00"/>
    </edge>
    <edge id=":intersection_1_3_14" function="internal">
        <lane id=":intersection_1_3_14_0" index="0" speed="11.11" length="9.66" width="4.00" shape="2.00,1184.00 0.88,1191.88 0.00,1193.33"/>
    </edge>
    <edge id=":intersection_1_3_22" function="internal">
        <lane id=":intersection_1_3_22_0" index="0" speed="11.11" length="19.37" width="4.00" shape="0.00,1193.33 -2.50,1197.50 -8.12,1200.88 -16.00,1202.00"/>
    </edge>
    <edge id=":intersection_1_3_15" function="internal">
        <lane id=":intersection_1_3_15_0" index="0" speed="6.79" length="9.68" width="4.00" shape="-16.00,1190.00 -13.37,1189.62 -11.50,1188.50 -10.38,1186.62 -10.00,1184.00"/>
    </edge>
    <edge id=":intersection_1_3_16" function="internal">
        <lane id=":intersection_1_3_16_0" index="0" speed="11.11" length="32.00" width="4.00" shape="-16.00,1190.00 16.00,1190.00"/>
        <lane id=":intersection_1_3_16_1" index="1" speed="11.11" length="32.00" width="4.00" shape="-16.00,1194.00 16.00,1194.00"/>
        <lane id=":intersection_1_3_16_2" index="2" speed="11.11" length="32.00" width="4.00" shape="-16.00,1198.00 16.00,1198.00"/>
    </edge>
    <edge id=":intersection_1_3_19" function="internal">
        <lane id=":intersection_1_3_19_0" index="0" speed="11.11" length="9.66" width="4.00" shape="-16.00,1198.00 -8.12,1199.12 -6.67,1200.00"/>
    </edge>
    <edge id=":intersection_1_3_23" function="internal">
        <lane id=":intersection_1_3_23_0" index="0" speed="11.11" length="19.37" width="4.00" shape="-6.67,1200.00 -2.50,1202.50 0.88,1208.12 2.00,1216.00"/>
    </edge>
    <edge id=":intersection_1_4_0" function="internal">
        <lane id=":intersection_1_4_0_0" index="0" speed="6.79" length="9.68" width="4.00" shape="-10.00,1816.00 -10.38,1813.38 -11.50,1811.50 -13.37,1810.38 -16.00,1810.00"/>
    </edge>
    <edge id=":intersection_1_4_1" function="internal">
        <lane id=":intersection_1_4_1_0" index="0" speed="11.11" length="32.00" width="4.00" shape="-10.00,1816.00 -10.00,1784.00"/>
        <lane id=":intersection_1_4_1_1" index="1" speed="11.11" length="32.00" width="4.00" shape="-6.00,1816.00 -6.00,1784.00"/>
        <lane id=":intersection_1_4_1_2" index="2" speed="11.11" length="32.00" width="4.00" shape="-2.00,1816.00 -2.00,1784.00"/>
    </edge>
    <edge id=":intersection_1_4_4" function="internal">
        <lane id=":intersection_1_4_4_0" index="0" speed="11.11" length="9.66" width="4.00" shape="-2.00,1816.00 -0.88,1808.12 -0.00,1806.67"/>
    </edge>
    <edge id=":intersection_1_4_20" function="internal">
        <lane id=":intersection_1_4_20_0" index="0" speed="11.11" length="19.37" width="4.00" shape="-0.00,1806.67 2.50,1802.50 8.12,1799.12 16.00,1798.00"/>
    </edge>
    <edge id=":intersection_1_4_5" function="internal">
        <lane id=":intersection_1_4_5_0" index="0" speed="6.79" length="9.68" width="4.00" shape="16.00,1810.00 13.37,1810.38 11.50,1811.50 10.38,1813.38 10.00,1816.00"/>
    </edge>
    <edge id=":intersection_1_4_6" function="internal">
        <lane id=":intersection_1_4_6_0" index="0" speed="11.11" length="32.00" width="4.00" shape="16.00,1810.00 -16.00,1810.00"/>
        <lane id=":intersection_1_4_6_1" index="1" speed="11.11" length="32.00" width="4.00" shape="16.00,1806.00 -16.00,1806.00"/>
        <lane id=":intersection_1_4_6_2" index="2" speed="11.11" length="32.00" width="4.00" shape="16.00,1802.00 -16.00,1802.00"/>
    </edge>
    <edge id=":intersection_1_4_9" function="internal">
        <lane id=":intersection_1_4_9_0" index="0" speed="11.11" length="9.66" width="4.00" shape="16.00,1802.00 8.12,1800.88 6.67,1800.00"/>
    </edge>
    <edge id=":intersection_1_4_21" function="internal">
        <lane id=":intersection_1_4_21_0" index="0" speed="11.11" length="19.37" width="4.00" shape="6.67,1800.00 2.50,1797.50 -0.88,1791.88 -2.00,1784.00"/>
    </edge>
    <edge id=":intersection_1_4_10" function="internal">
        <lane id=":intersection_1_4_10_0" index="0" speed="6.79" length="9.68" width="4.00" shape="10.00,1784.00 10.38,1786.62 11.50,1788.50 13.37,1789.62 16.00,1790.00"/>
    </edge>
    <edge id=":intersection_1_4_11" function="internal">
        <lane id=":intersection_1_4_11_0" index="0" speed="11.11" length="32.00" width="4.00" shape="10.00,1784.00 10.00,1816.00"/>
        <lane id=":intersection_1_4_11_1" index="1" speed="11.11" length="32.00" width="4.00" shape="6.00,1784.00 6.00,1816.00"/>
        <lane id=":intersection_1_4_11_2" index="2" speed="11.11" length="32.00" width="4.00" shape="2.00,1784.00 2.00,1816.00"/>
    </edge>
    <edge id=":intersection_1_4_14" function="internal">
        <lane id=":intersection_1_4_14_0" index="0" speed="11.11" length="9.66" width="4.00" shape="2.00,1784.00 0.88,1791.88 0.00,1793.33"/>
    </edge>
    <edge id=":intersection_1_4_22" function="internal">
        <lane id=":intersection_1_4_22_0" index="0" speed="11.11" length="19.37" width="4.00" shape="0.00,1793.33 -2.50,1797.50 -8.12,1800.88 -16.00,1802.00"/>
    </edge>
    <edge id=":intersection_1_4_15" function="internal">
        <lane id=":intersection_1_4_15_0" index="0" speed="6.79" length="9.68" width="4.00" shape="-16.00,1790.00 -13.37,1789.62 -11.50,1788.50 -10.38,1786.62 -10.00,1784.00"/>
    </edge>
    <edge id=":intersection_1_4_16" function="internal">
        <lane id=":intersection_1_4_16_0" index="0" speed="11.11" length="32.00" width="4.00" shape="-16.00,1790.00 16.00,1790.00"/>
        <lane id=":intersection_1_4_16_1" index="1" speed="11.11" length="32.00" width="4.00" shape="-16.00,1794.00 16.00,1794.00"/>
        <lane id=":intersection_1_4_16_2" index="2" speed="11.11" length="32.00" width="4.00" shape="-16.00,1798.00 16.00,1798.00"/>
    </edge>
    <edge id=":intersection_1_4_19" function="internal">
        <lane id=":intersection_1_4_19_0" index="0" speed="11.11" length="9.66" width="4.00" shape="-16.00,1798.00 -8.12,1799.12 -6.67,1800.00"/>
    </edge>
    <edge id=":intersection_1_4_23" function="internal">
        <lane id=":intersection_1_4_23_0" index="0" speed="11.11" length="19.37" width="4.00" shape="-6.67,1800.00 -2.50,1802.50 0.88,1808.12 2.00,1816.00"/>
    </edge>
    <edge id=":intersection_2_1_0" function="internal">
        <lane id=":intersection_2_1_0_0" index="0" speed="6.79" length="9.68" width="4.00" shape="790.00,16.00 789.62,13.38 788.50,11.50 786.62,10.37 784.00,10.00"/>
    </edge>
    <edge id=":intersection_2_1_1" function="internal">
        <lane id=":intersection_2_1_1_0" index="0" speed="11.11" length="32.00" width="4.00" shape="790.00,16.00 790.00,-16.00"/>
        <lane id=":intersection_2_1_1_1" index="1" speed="11.11" length="32.00" width="4.00" shape="794.00,16.00 794.00,-16.00"/>
        <lane id=":intersection_2_1_1_2" index="2" speed="11.11" length="32.00" width="4.00" shape="798.00,16.00 798.00,-16.00"/>
    </edge>
    <edge id=":intersection_2_1_4" function="internal">
        <lane id=":intersection_2_1_4_0" index="0" speed="11.11" length="9.66" width="4.00" shape="798.00,16.00 799.12,8.13 800.00,6.67"/>
    </edge>
    <edge id=":intersection_2_1_20" function="internal">
        <lane id=":intersection_2_1_20_0" index="0" speed="11.11" length="19.37" width="4.00" shape="800.00,6.67 802.50,2.50 808.12,-0.87 816.00,-2.00"/>
    </edge>
    <edge id=":intersection_2_1_5" function="internal">
        <lane id=":intersection_2_1_5_0" index="0" speed="6.79" length="9.68" width="4.00" shape="816.00,10.00 813.38,10.38 811.50,11.50 810.38,13.38 810.00,16.00"/>
    </edge>
    <edge id=":intersection_2_1_6" function="internal">
        <lane id=":intersection_2_1_6_0" index="0" speed="11.11" length="32.00" width="4.00" shape="816.00,10.00 784.00,10.00"/>
        <lane id=":intersection_2_1_6_1" index="1" speed="11.11" length="32.00" width="4.00" shape="816.00,6.00 784.00,6.00"/>
        <lane id=":intersection_2_1_6_2" index="2" speed="11.11" length="32.00" width="4.00" shape="816.00,2.00 784.00,2.00"/>
    </edge>
    <edge id=":intersection_2_1_9" function="internal">
        <lane id=":intersection_2_1_9_0" index="0" speed="11.11" length="9.66" width="4.00" shape="816.00,2.00 808.12,0.87 806.67,-0.00"/>
    </edge>
    <edge id=":intersection_2_1_21" function="internal">
        <lane id=":intersection_2_1_21_0" index="0" speed="11.11" length="19.37" width="4.00" shape="806.67,-0.00 802.50,-2.50 799.12,-8.13 798.00,-16.00"/>
    </edge>
    <edge id=":intersection_2_1_10" function="internal">
        <lane id=":intersection_2_1_10_0" index="0" speed="6.79" length="9.68" width="4.00" shape="810.00,-16.00 810.38,-13.38 811.50,-11.50 813.38,-10.38 816.00,-10.00"/>
    </edge>
    <edge id=":intersection_2_1_11" function="internal">
        <lane id=":intersection_2_1_11_0" index="0" speed="11.11" length="32.00" width="4.00" shape="810.00,-16.00 810.00,16.00"/>
        <lane id=":intersection_2_1_11_1" index="1" speed="11.11" length="32.00" width="4.00" shape="806.00,-16.00 806.00,16.00"/>
        <lane id=":intersection_2_1_11_2" index="2" speed="11.11" length="32.00" width="4.00" shape="802.00,-16.00 802.00,16.00"/>
    </edge>
    <edge id=":intersection_2_1_14" function="internal">
        <lane id=":intersection_2_1_14_0" index="0" speed="11.11" length="9.66" width="4.00" shape="802.00,-16.00 800.88,-8.13 800.00,-6.67"/>
    </edge>
    <edge id=":intersection_2_1_22" function="internal">
        <lane id=":intersection_2_1_22_0" index="0" speed="11.11" length="19.37" width="4.00" shape="800.00,-6.67 797.50,-2.50 791.88,0.88 784.00,2.00"/>
    </edge>
    <edge id=":intersection_2_1_15" function="internal">
        <lane id=":intersection_2_1_15_0" index="0" speed="6.79" length="9.68" width="4.00" shape="784.00,-10.00 786.62,-10.38 788.50,-11.50 789.62,-13.38 790.00,-16.00"/>
    </edge>
    <edge id=":intersection_2_1_16" function="internal">
        <lane id=":intersection_2_1_16_0" index="0" speed="11.11" length="32.00" width="4.00" shape="784.00,-10.00 816.00,-10.00"/>
        <lane id=":intersection_2_1_16_1" index="1" speed="11.11" length="32.00" width="4.00" shape="784.00,-6.00 816.00,-6.00"/>
        <lane id=":intersection_2_1_16_2" index="2" speed="11.11" length="32.00" width="4.00" shape="784.00,-2.00 816.00,-2.00"/>
    </edge>
    <edge id=":intersection_2_1_19" function="internal">
        <lane id=":intersection_2_1_19_0" index="0" speed="11.11" length="9.66" width="4.00" shape="784.00,-2.00 791.88,-0.87 793.33,0.00"/>
    </edge>
    <edge id=":intersection_2_1_23" function="internal">
        <lane id=":intersection_2_1_23_0" index="0" speed="11.11" length="19.37" width="4.00" shape="793.33,0.00 797.50,2.50 800.88,8.13 802.00,16.00"/>
    </edge>
    <edge id=":intersection_2_2_0" function="internal">
        <lane id=":intersection_2_2_0_0" index="0" speed="6.79" length="9.68" width="4.00" shape="790.00,616.00 789.62,613.38 788.50,611.50 786.62,610.38 784.00,610.00"/>
    </edge>
    <edge id=":intersection_2_2_1" function="internal">
        <lane id=":intersection_2_2_1_0" index="0" speed="11.11" length="32.00" width="4.00" shape="790.00,616.00 790.00,584.00"/>
        <lane id=":intersection_2_2_1_1" index="1" speed="11.11" length="32.00" width="4.00" shape="794.00,616.00 794.00,584.00"/>
        <lane id=":intersection_2_2_1_2" index="2" speed="11.11" length="32.00" width="4.00" shape="798.00,616.00 798.00,584.00"/>
    </edge>
    <edge id=":intersection_2_2_4" function="internal">
        <lane id=":intersection_2_2_4_0" index="0" speed="11.11" length="9.66" width="4.00" shape="798.00,616.00 799.12,608.12 800.00,606.67"/>
    </edge>
    <edge id=":intersection_2_2_20" function="internal">
        <lane id=":intersection_2_2_20_0" index="0" speed="11.11" length="19.37" width="4.00" shape="800.00,606.67 802.50,602.50 808.12,599.12 816.00,598.00"/>
    </edge>
    <edge id=":intersection_2_2_5" function="internal">
        <lane id=":intersection_2_2_5_0" index="0" speed="6.79" length="9.68" width="4.00" shape="816.00,610.00 813.38,610.38 811.50,611.50 810.38,613.38 810.00,616.00"/>
    </edge>
    <edge id=":intersection_2_2_6" function="internal">
        <lane id=":intersection_2_2_6_0" index="0" speed="11.11" length="32.00" width="4.00" shape="816.00,610.00 784.00,610.00"/>
        <lane id=":intersection_2_2_6_1" index="1" speed="11.11" length="32.00" width="4.00" shape="816.00,606.00 784.00,606.00"/>
        <lane id=":intersection_2_2_6_2" index="2" speed="11.11" length="32.00" width="4.00" shape="816.00,602.00 784.00,602.00"/>
    </edge>
    <edge id=":intersection_2_2_9" function="internal">
        <lane id=":intersection_2_2_9_0" index="0" speed="11.11" length="9.66" width="4.00" shape="816.00,602.00 808.12,600.88 806.67,600.00"/>
    </edge>
    <edge id=":intersection_2_2_21" function="internal">
        <lane id=":intersection_2_2_21_0" index="0" speed="11.11" length="19.37" width="4.00" shape="806.67,600.00 802.50,597.50 799.12,591.88 798.00,584.00"/>
    </edge>
    <edge id=":intersection_2_2_10" function="internal">
        <lane id=":intersection_2_2_10_0" index="0" speed="6.79" length="9.68" width="4.00" shape="810.00,584.00 810.38,586.62 811.50,588.50 813.38,589.62 816.00,590.00"/>
    </edge>
    <edge id=":intersection_2_2_11" function="internal">
        <lane id=":intersection_2_2_11_0" index="0" speed="11.11" length="32.00" width="4.00" shape="810.00,584.00 810.00,616.00"/>
        <lane id=":intersection_2_2_11_1" index="1" speed="11.11" length="32.00" width="4.00" shape="806.00,584.00 806.00,616.00"/>
        <lane id=":intersection_2_2_11_2" index="2" speed="11.11" length="32.00" width="4.00" shape="802.00,584.00 802.00,616.00"/>
    </edge>
    <edge id=":intersection_2_2_14" function="internal">
        <lane id=":intersection_2_2_14_0" index="0" speed="11.11" length="9.66" width="4.00" shape="802.00,584.00 800.88,591.88 800.00,593.33"/>
    </edge>
    <edge id=":intersection_2_2_22" function="internal">
        <lane id=":intersection_2_2_22_0" index="0" speed="11.11" length="19.37" width="4.00" shape="800.00,593.33 797.50,597.50 791.88,600.88 784.00,602.00"/>
    </edge>
    <edge id=":intersection_2_2_15" function="internal">
        <lane id=":intersection_2_2_15_0" index="0" speed="6.79" length="9.68" width="4.00" shape="784.00,590.00 786.62,589.62 788.50,588.50 789.62,586.62 790.00,584.00"/>
    </edge>
    <edge id=":intersection_2_2_16" function="internal">
        <lane id=":intersection_2_2_16_0" index="0" speed="11.11" length="32.00" width="4.00" shape="784.00,590.00 816.00,590.00"/>
        <lane id=":intersection_2_2_16_1" index="1" speed="11.11" length="32.00" width="4.00" shape="784.00,594.00 816.00,594.00"/>
        <lane id=":intersection_2_2_16_2" index="2" speed="11.11" length="32.00" width="4.00" shape="784.00,598.00 816.00,598.00"/>
    </edge>
    <edge id=":intersection_2_2_19" function="internal">
        <lane id=":intersection_2_2_19_0" index="0" speed="11.11" length="9.66" width="4.00" shape="784.00,598.00 791.88,599.12 793.33,600.00"/>
    </edge>
    <edge id=":intersection_2_2_23" function="internal">
        <lane id=":intersection_2_2_23_0" index="0" speed="11.11" length="19.37" width="4.00" shape="793.33,600.00 797.50,602.50 800.88,608.12 802.00,616.00"/>
    </edge>
    <edge id=":intersection_2_3_0" function="internal">
        <lane id=":intersection_2_3_0_0" index="0" speed="6.79" length="9.68" width="4.00" shape="790.00,1216.00 789.62,1213.38 788.50,1211.50 786.62,1210.38 784.00,1210.00"/>
    </edge>
    <edge id=":intersection_2_3_1" function="internal">
        <lane id=":intersection_2_3_1_0" index="0" speed="11.11" length="32.00" width="4.00" shape="790.00,1216.00 790.00,1184.00"/>
        <lane id=":intersection_2_3_1_1" index="1" speed="11.11" length="32.00" width="4.00" shape="794.00,1216.00 794.00,1184.00"/>
        <lane id=":intersection_2_3_1_2" index="2" speed="11.11" length="32.00" width="4.00" shape="798.00,1216.00 798.00,1184.00"/>
    </edge>
    <edge id=":intersection_2_3_4" function="internal">