<?xml version="1.0" encoding="UTF-8"?>
<!-- generated on 2021-06-28 19:08:10.169366 by randomTrips.py UNKNOWN
  options: -n most.net.xml -e 3600
-->
<routes>
    <trip id="0" depart="0.00" from="10078#2" to="-10046#5"/>
    <trip id="1" depart="1.00" from="-10114#1" to="-10105"/>
    <trip id="2" depart="2.00" from="10108#0" to="10089#4"/>
    <trip id="3" depart="3.00" from="10182#1" to="-10064#3"/>
    <trip id="4" depart="4.00" from="-10185#1" to="-10051#0"/>
    <trip id="5" depart="5.00" from="-10090#1" to="10053#1"/>
    <trip id="6" depart="6.00" from="-10046#5" to="-10090#0"/>
    <trip id="7" depart="7.00" from="10080#1" to="10064#3"/>
    <trip id="8" depart="8.00" from="-10094#0" to="10070#1"/>
    <trip id="9" depart="9.00" from="10172#1" to="-10040"/>
    <trip id="10" depart="10.00" from="10172#0" to="10095"/>
    <trip id="11" depart="11.00" from="-10174#11" to="-10078#0"/>
    <trip id="13" depart="13.00" from="-10064#5" to="-10064#7"/>
    <trip id="15" depart="15.00" from="10172#0" to="10106#3"/>
    <trip id="16" depart="16.00" from="10059" to="gneE14"/>
    <trip id="17" depart="17.00" from="-10183#10" to="10064#6"/>
    <trip id="18" depart="18.00" from="10174#5" to="10074"/>
    <trip id="19" depart="19.00" from="10176#3" to="10067#0"/>
    <trip id="20" depart="20.00" from="10097#2" to="-10053#0"/>
    <trip id="21" depart="21.00" from="-10094#3" to="-10119#4"/>
    <trip id="22" depart="22.00" from="-10061#5" to="-10106#3"/>
    <trip id="23" depart="23.00" from="-10064#8" to="-10117#1"/>
    <trip id="25" depart="25.00" from="-10182#1" to="-10094#2"/>
    <trip id="27" depart="27.00" from="10080#0" to="10071#4"/>
    <trip id="28" depart="28.00" from="-10080#1" to="10106#2"/>
    <trip id="29" depart="29.00" from="-10078#0" to="-10183#3"/>
    <trip id="30" depart="30.00" from="gneE4" to="10080#2"/>
    <trip id="31" depart="31.00" from="10064#3" to="10091"/>
    <trip id="32" depart="32.00" from="10175#0" to="10118"/>
    <trip id="33" depart="33.00" from="-10094#3" to="-10051#1"/>
    <trip id="34" depart="34.00" from="-10119#7" to="-10115#4"/>
    <trip id="35" depart="35.00" from="-10089#3" to="10185#1"/>
    <trip id="36" depart="36.00" from="10180#2" to="-10174#0"/>
    <trip id="37" depart="37.00" from="10083#0" to="-10184#0"/>
    <trip id="38" depart="38.00" from="10183#15" to="10048"/>
    <trip id="39" depart="39.00" from="-10111" to="-10111"/>
    <trip id="40" depart="40.00" from="10064#5" to="-10115#1"/>
    <trip id="41" depart="41.00" from="10066#1" to="10183#1"/>
    <trip id="42" depart="42.00" from="-10183#4" to="-10100"/>
    <trip id="43" depart="43.00" from="gneE8" to="10053#2"/>
    <trip id="44" depart="44.00" from="-10064#4" to="-10053#1"/>
    <trip id="45" depart="45.00" from="-10065#1" to="10077"/>
    <trip id="46" depart="46.00" from="10119#7" to="10031#0"/>
    <trip id="47" depart="47.00" from="-10058#1" to="-10183#4"/>
    <trip id="48" depart="48.00" from="gneE8" to="10061#2"/>
    <trip id="49" depart="49.00" from="gneE14" to="10176#2"/>
    <trip id="50" depart="50.00" from="-10043" to="10105"/>
    <trip id="51" depart="51.00" from="10090#1" to="10062"/>
    <trip id="53" depart="53.00" from="-10065#2" to="10040"/>
    <trip id="55" depart="55.00" from="10180#2" to="-10115#1"/>
    <trip id="56" depart="56.00" from="10052#0" to="-10084#0"/>
    <trip id="57" depart="57.00" from="10183#15" to="10178"/>
    <trip id="58" depart="58.00" from="-10118" to="10080#1"/>
    <trip id="59" depart="59.00" from="10070#2" to="-10077"/>
    <trip id="60" depart="60.00" from="10115#4" to="10063"/>
    <trip id="61" depart="61.00" from="10119#2" to="10061#3"/>
    <trip id="63" depart="63.00" from="-10045#1" to="10183#7"/>
    <trip id="64" depart="64.00" from="10180#3" to="10174#5"/>
    <trip id="65" depart="65.00" from="-10119#4" to="-10057"/>
    <trip id="66" depart="66.00" from="10180#2" to="10186"/>
    <trip id="67" depart="67.00" from="-10064#10" to="10051#6"/>
    <trip id="68" depart="68.00" from="-10061#1" to="10115#1"/>
    <trip id="69" depart="69.00" from="10115#5" to="-10070#2"/>
    <trip id="70" depart="70.00" from="10048" to="10064#5"/>
    <trip id="72" depart="72.00" from="-10185#2" to="-10094#3"/>
    <trip id="73" depart="73.00" from="10061#0" to="10106#3"/>
    <trip id="74" depart="74.00" from="-10088" to="-10173#0"/>
    <trip id="75" depart="75.00" from="gneE8" to="10083#1"/>
    <trip id="76" depart="76.00" from="-10210#1" to="10058#0"/>
    <trip id="78" depart="78.00" from="-10174#10" to="10070#1"/>
    <trip id="79" depart="79.00" from="-10095" to="-10104"/>
    <trip id="80" depart="80.00" from="-10061#2" to="10078#2"/>
    <trip id="81" depart="81.00" from="-10094#3" to="10183#12"/>
    <trip id="82" depart="82.00" from="10176#2" to="-10061#1"/>
    <trip id="83" depart="83.00" from="-10104" to="10089#1"/>
    <trip id="84" depart="84.00" from="-10089#4" to="-10071#0"/>
    <trip id="86" depart="86.00" from="10046#5" to="10119#3"/>
    <trip id="87" depart="87.00" from="10172#1" to="-10089#2"/>
    <trip id="88" depart="88.00" from="-10064#6" to="10038"/>
    <trip id="89" depart="89.00" from="-10185#2" to="10050#1"/>
    <trip id="90" depart="90.00" from="10106#2" to="10089#3"/>
    <trip id="91" depart="91.00" from="gneE19" to="-10064#8"/>
    <trip id="92" depart="92.00" from="-10183#6" to="-10174#9"/>
    <trip id="93" depart="93.00" from="10176#3" to="-10111"/>
    <trip id="94" depart="94.00" from="-10084#0" to="10045#0"/>
    <trip id="95" depart="95.00" from="-10185#1" to="-10118"/>
    <trip id="96" depart="96.00" from="-10106#3" to="10183#5"/>
    <trip id="97" depart="97.00" from="10031#1" to="10176#3"/>
    <trip id="98" depart="98.00" from="10061#4" to="-10053#2"/>
    <trip id="99" depart="99.00" from="gneE9" to="10174#7"/>
    <trip id="100" depart="100.00" from="gneE13" to="10183#6"/>
    <trip id="101" depart="101.00" from="10175#2" to="-10080#1"/>
    <trip id="102" depart="102.00" from="10051#0" to="-10096#0"/>
    <trip id="104" depart="104.00" from="-10183#10" to="gneE19"/>
    <trip id="108" depart="108.00" from="10062" to="10104"/>
    <trip id="109" depart="109.00" from="-10075#2" to="-10119#7"/>
    <trip id="110" depart="110.00" from="gneE13" to="10067#1"/>
    <trip id="111" depart="111.00" from="10061#1" to="10111"/>
    <trip id="113" depart="113.00" from="10052#1" to="10175#4"/>
    <trip id="114" depart="114.00" from="-10076" to="10210#1"/>
    <trip id="115" depart="115.00" from="-10061#5" to="-10089#0"/>
    <trip id="116" depart="116.00" from="10067#1" to="10089#3"/>
    <trip id="117" depart="117.00" from="-10100" to="-10069#1"/>
    <trip id="118" depart="118.00" from="10182#1" to="-10110"/>
    <trip id="119" depart="119.00" from="10067#1" to="10074"/>
    <trip id="122" depart="122.00" from="-10089#0" to="10102"/>
    <trip id="123" depart="123.00" from="-10104" to="-10184#0"/>
    <trip id="124" depart="124.00" from="10089#2" to="-10119#8"/>
    <trip id="125" depart="125.00" from="-10119#7" to="10114#0"/>
    <trip id="126" depart="126.00" from="-10061#2" to="10046#5"/>
    <trip id="127" depart="127.00" from="gneE9" to="gneE8"/>
    <trip id="128" depart="128.00" from="-10061#3" to="-10096#0"/>
</routes>
