<routes>
    <vehicle id="11196" depart="9" type="passenger" departSpeed="5">
        <route edges="EtoC CtoW"/>
    </vehicle>

    <vehicle id="11197" depart="10" type="passenger" departSpeed="5">
        <route edges="EtoC CtoW"/>
    </vehicle>

    <vehicle id="2001" depart="11" type="passenger" departSpeed="5">
        <route edges="EtoC CtoW"/>
    </vehicle>

    <vehicle id="2000" depart="13" type="passenger" departSpeed="5">
        <route edges="EtoC CtoW"/>
    </vehicle>

    <vehicle id="4121" depart="14" type="passenger" departSpeed="5">
        <route edges="EtoC CtoS"/>
    </vehicle>

    <vehicle id="5560" depart="15" type="passenger" departSpeed="5">
        <route edges="StoC CtoE"/>
    </vehicle>

    <vehicle id="5559" depart="24" type="passenger" departSpeed="5">
        <route edges="StoC CtoW"/>
    </vehicle>

    <vehicle id="11198" depart="32" type="passenger" departSpeed="5">
        <route edges="EtoC CtoS"/>
    </vehicle>

    <vehicle id="15887" depart="32" type="passenger" departSpeed="5">
        <route edges="NtoC CtoS"/>
    </vehicle>

    <vehicle id="3571" depart="33" type="passenger" departSpeed="5">
        <route edges="StoC CtoE"/>
    </vehicle>

    <vehicle id="3570" depart="37" type="passenger" departSpeed="5">
        <route edges="StoC CtoW"/>
    </vehicle>

    <vehicle id="7861" depart="45" type="passenger" departSpeed="5">
        <route edges="WtoC CtoE"/>
    </vehicle>

    <vehicle id="7862" depart="46" type="passenger" departSpeed="5">
        <route edges="WtoC CtoE"/>
    </vehicle>

    <vehicle id="14238" depart="54" type="passenger" departSpeed="5">
        <route edges="WtoC CtoE"/>
    </vehicle>

    <vehicle id="4122" depart="57" type="passenger" departSpeed="5">
        <route edges="EtoC CtoS"/>
    </vehicle>

    <vehicle id="4123" depart="62" type="passenger" departSpeed="5">
        <route edges="EtoC CtoS"/>
    </vehicle>

    <vehicle id="7863" depart="67" type="passenger" departSpeed="5">
        <route edges="WtoC CtoE"/>
    </vehicle>

    <vehicle id="14239" depart="69" type="passenger" departSpeed="5">
        <route edges="WtoC CtoE"/>
    </vehicle>

    <vehicle id="11199" depart="71" type="passenger" departSpeed="5">
        <route edges="EtoC CtoW"/>
    </vehicle>

    <vehicle id="4690" depart="73" type="passenger" departSpeed="5">
        <route edges="NtoC CtoE"/>
    </vehicle>

    <vehicle id="2003" depart="73" type="passenger" departSpeed="5">
        <route edges="EtoC CtoW"/>
    </vehicle>

    <vehicle id="2002" depart="73" type="passenger" departSpeed="5">
        <route edges="EtoC CtoW"/>
    </vehicle>

    <vehicle id="15888" depart="80" type="passenger" departSpeed="5">
        <route edges="NtoC CtoE"/>
    </vehicle>

    <vehicle id="7864" depart="85" type="passenger" departSpeed="5">
        <route edges="WtoC CtoE"/>
    </vehicle>

    <vehicle id="14240" depart="87" type="passenger" departSpeed="5">
        <route edges="WtoC CtoE"/>
    </vehicle>

    <vehicle id="5561" depart="89" type="truck" departSpeed="5">
        <route edges="StoC CtoN"/>
    </vehicle>

    <vehicle id="7865" depart="90" type="passenger" departSpeed="5">
        <route edges="WtoC CtoE"/>
    </vehicle>

    <vehicle id="14241" depart="92" type="passenger" departSpeed="5">
        <route edges="WtoC CtoE"/>
    </vehicle>

    <vehicle id="7866" depart="95" type="passenger" departSpeed="5">
        <route edges="WtoC CtoE"/>
    </vehicle>

    <vehicle id="14242" depart="97" type="passenger" departSpeed="5">
        <route edges="WtoC CtoE"/>
    </vehicle>

    <vehicle id="3572" depart="112" type="passenger" departSpeed="5">
        <route edges="StoC CtoE"/>
    </vehicle>

    <vehicle id="11200" depart="128" type="motorcycle" departSpeed="5">
        <route edges="EtoC CtoW"/>
    </vehicle>

    <vehicle id="7867" depart="129" type="passenger" departSpeed="5">
        <route edges="WtoC CtoE"/>
    </vehicle>

    <vehicle id="7868" depart="133" type="passenger" departSpeed="5">
        <route edges="WtoC CtoE"/>
    </vehicle>

    <vehicle id="14243" depart="133" type="passenger" departSpeed="5">
        <route edges="WtoC CtoE"/>
    </vehicle>

    <vehicle id="2004" depart="134" type="motorcycle" departSpeed="5">
        <route edges="EtoC CtoW"/>
    </vehicle>

    <vehicle id="2005" depart="136" type="passenger" departSpeed="5">
        <route edges="EtoC CtoW"/>
    </vehicle>

    <vehicle id="14244" depart="136" type="passenger" departSpeed="5">
        <route edges="WtoC CtoE"/>
    </vehicle>

    <vehicle id="7869" depart="136" type="passenger" departSpeed="5">
        <route edges="WtoC CtoE"/>
    </vehicle>

    <vehicle id="11201" depart="137" type="passenger" departSpeed="5">
        <route edges="EtoC CtoW"/>
    </vehicle>

    <vehicle id="14245" depart="140" type="passenger" departSpeed="5">
        <route edges="WtoC CtoE"/>
    </vehicle>

    <vehicle id="2006" depart="141" type="passenger" departSpeed="5">
        <route edges="EtoC CtoW"/>
    </vehicle>

    <vehicle id="7870" depart="141" type="passenger" departSpeed="5">
        <route edges="WtoC CtoE"/>
    </vehicle>

    <vehicle id="7871" depart="142" type="passenger" departSpeed="5">
        <route edges="WtoC CtoE"/>
    </vehicle>

    <vehicle id="14246" depart="144" type="passenger" departSpeed="5">
        <route edges="WtoC CtoE"/>
    </vehicle>

    <vehicle id="14247" depart="146" type="passenger" departSpeed="5">
        <route edges="WtoC CtoE"/>
    </vehicle>

    <vehicle id="7872" depart="147" type="passenger" departSpeed="5">
        <route edges="WtoC CtoE"/>
    </vehicle>

    <vehicle id="14248" depart="150" type="passenger" departSpeed="5">
        <route edges="WtoC CtoE"/>
    </vehicle>

    <vehicle id="4691" depart="153" type="truck" departSpeed="5">
        <route edges="NtoC CtoE"/>
    </vehicle>

    <vehicle id="2007" depart="155" type="passenger" departSpeed="5">
        <route edges="EtoC CtoW"/>
    </vehicle>

    <vehicle id="15889" depart="160" type="truck" departSpeed="5">
        <route edges="NtoC CtoE"/>
    </vehicle>

    <vehicle id="7873" depart="171" type="motorcycle" departSpeed="5">
        <route edges="WtoC CtoE"/>
    </vehicle>

    <vehicle id="14249" depart="173" type="passenger" departSpeed="5">
        <route edges="WtoC CtoE"/>
    </vehicle>

    <vehicle id="7874" depart="174" type="passenger" departSpeed="5">
        <route edges="WtoC CtoE"/>
    </vehicle>

    <vehicle id="14250" depart="176" type="passenger" departSpeed="5">
        <route edges="WtoC CtoE"/>
    </vehicle>

    <vehicle id="7875" depart="177" type="passenger" departSpeed="5">
        <route edges="WtoC CtoE"/>
    </vehicle>

    <vehicle id="14251" depart="179" type="passenger" departSpeed="5">
        <route edges="WtoC CtoE"/>
    </vehicle>

    <vehicle id="14252" depart="184" type="passenger" departSpeed="5">
        <route edges="WtoC CtoS"/>
    </vehicle>

    <vehicle id="11202" depart="184" type="passenger" departSpeed="5">
        <route edges="EtoC CtoW"/>
    </vehicle>

    <vehicle id="11203" depart="184" type="passenger" departSpeed="5">
        <route edges="EtoC CtoW"/>
    </vehicle>

    <vehicle id="2008" depart="185" type="passenger" departSpeed="5">
        <route edges="EtoC CtoW"/>
    </vehicle>

    <vehicle id="11205" depart="189" type="passenger" departSpeed="5">
        <route edges="EtoC CtoW"/>
    </vehicle>

    <vehicle id="11206" depart="190" type="passenger" departSpeed="5">
        <route edges="EtoC CtoW"/>
    </vehicle>

    <vehicle id="5562" depart="190" type="passenger" departSpeed="5">
        <route edges="StoC CtoN"/>
    </vehicle>

    <vehicle id="2009" depart="190" type="passenger" departSpeed="5">
        <route edges="EtoC CtoW"/>
    </vehicle>

    <vehicle id="2010" depart="192" type="passenger" departSpeed="5">
        <route edges="EtoC CtoW"/>
    </vehicle>

    <vehicle id="16331" depart="193" type="passenger" departSpeed="5">
        <route edges="EtoC CtoS"/>
    </vehicle>

    <vehicle id="7876" depart="195" type="passenger" departSpeed="5">
        <route edges="WtoC CtoE"/>
    </vehicle>

    <vehicle id="11204" depart="195" type="passenger" departSpeed="5">
        <route edges="EtoC CtoW"/>
    </vehicle>

    <vehicle id="2011" depart="197" type="passenger" departSpeed="5">
        <route edges="EtoC CtoW"/>
    </vehicle>

    <vehicle id="14253" depart="197" type="passenger" departSpeed="5">
        <route edges="WtoC CtoE"/>
    </vehicle>

    <vehicle id="4124" depart="198" type="passenger" departSpeed="5">
        <route edges="EtoC CtoS"/>
    </vehicle>

    <vehicle id="7877" depart="200" type="passenger" departSpeed="5">
        <route edges="WtoC CtoE"/>
    </vehicle>

    <vehicle id="14254" depart="203" type="passenger" departSpeed="5">
        <route edges="WtoC CtoE"/>
    </vehicle>

    <vehicle id="4693" depart="211" type="passenger" departSpeed="5">
        <route edges="NtoC CtoW"/>
    </vehicle>

    <vehicle id="7878" depart="220" type="passenger" departSpeed="5">
        <route edges="WtoC CtoE"/>
    </vehicle>

    <vehicle id="7879" depart="223" type="passenger" departSpeed="5">
        <route edges="WtoC CtoE"/>
    </vehicle>

    <vehicle id="2012" depart="223" type="passenger" departSpeed="5">
        <route edges="EtoC CtoW"/>
    </vehicle>

    <vehicle id="14255" depart="223" type="passenger" departSpeed="5">
        <route edges="WtoC CtoE"/>
    </vehicle>

    <vehicle id="7880" depart="224" type="passenger" departSpeed="5">
        <route edges="WtoC CtoE"/>
    </vehicle>

    <vehicle id="14256" depart="225" type="passenger" departSpeed="5">
        <route edges="WtoC CtoE"/>
    </vehicle>

    <vehicle id="11207" depart="226" type="passenger" departSpeed="5">
        <route edges="EtoC CtoW"/>
    </vehicle>

    <vehicle id="11208" depart="226" type="passenger" departSpeed="5">
        <route edges="EtoC CtoW"/>
    </vehicle>

    <vehicle id="14257" depart="227" type="passenger" departSpeed="5">
        <route edges="WtoC CtoE"/>
    </vehicle>

    <vehicle id="2013" depart="227" type="passenger" departSpeed="5">
        <route edges="EtoC CtoW"/>
    </vehicle>

    <vehicle id="7881" depart="236" type="passenger" departSpeed="5">
        <route edges="WtoC CtoE"/>
    </vehicle>

    <vehicle id="14258" depart="238" type="passenger" departSpeed="5">
        <route edges="WtoC CtoE"/>
    </vehicle>

    <vehicle id="11211" depart="240" type="passenger" departSpeed="5">
        <route edges="EtoC CtoW"/>
    </vehicle>

    <vehicle id="2015" depart="242" type="passenger" departSpeed="5">
        <route edges="EtoC CtoW"/>
    </vehicle>

    <vehicle id="11210" depart="244" type="delivery" departSpeed="5">
        <route edges="EtoC CtoW"/>
    </vehicle>

    <vehicle id="11209" depart="245" type="passenger" departSpeed="5">
        <route edges="EtoC CtoW"/>
    </vehicle>

    <vehicle id="2014" depart="246" type="delivery" departSpeed="5">
        <route edges="EtoC CtoW"/>
    </vehicle>

    <vehicle id="11214" depart="246" type="passenger" departSpeed="5">
        <route edges="EtoC CtoW"/>
    </vehicle>

    <vehicle id="2017" depart="248" type="passenger" departSpeed="5">
        <route edges="EtoC CtoW"/>
    </vehicle>

    <vehicle id="11212" depart="249" type="passenger" departSpeed="5">
        <route edges="EtoC CtoW"/>
    </vehicle>

    <vehicle id="11215" depart="249" type="passenger" departSpeed="5">
        <route edges="EtoC CtoW"/>
    </vehicle>

    <vehicle id="2018" depart="250" type="passenger" departSpeed="5">
        <route edges="EtoC CtoW"/>
    </vehicle>

    <vehicle id="2019" depart="251" type="passenger" departSpeed="5">
        <route edges="EtoC CtoW"/>
    </vehicle>

    <vehicle id="11213" depart="252" type="passenger" departSpeed="5">
        <route edges="EtoC CtoW"/>
    </vehicle>

    <vehicle id="2016" depart="253" type="passenger" departSpeed="5">
        <route edges="EtoC CtoW"/>
    </vehicle>

    <vehicle id="2020" depart="254" type="passenger" departSpeed="5">
        <route edges="EtoC CtoW"/>
    </vehicle>

    <vehicle id="11216" depart="259" type="passenger" departSpeed="5">
        <route edges="EtoC CtoW"/>
    </vehicle>

    <vehicle id="2021" depart="261" type="passenger" departSpeed="5">
        <route edges="EtoC CtoW"/>
    </vehicle>

    <vehicle id="11217" depart="262" type="passenger" departSpeed="5">
        <route edges="EtoC CtoW"/>
    </vehicle>

    <vehicle id="2022" depart="263" type="passenger" departSpeed="5">
        <route edges="EtoC CtoW"/>
    </vehicle>

    <vehicle id="11219" depart="267" type="passenger" departSpeed="5">
        <route edges="EtoC CtoW"/>
    </vehicle>

    <vehicle id="7882" depart="269" type="passenger" departSpeed="5">
        <route edges="WtoC CtoE"/>
    </vehicle>

    <vehicle id="7883" depart="272" type="passenger" departSpeed="5">
        <route edges="WtoC CtoE"/>
    </vehicle>

    <vehicle id="3573" depart="273" type="passenger" departSpeed="5">
        <route edges="StoC CtoN"/>
    </vehicle>

    <vehicle id="15891" depart="275" type="passenger" departSpeed="5">
        <route edges="NtoC CtoW"/>
    </vehicle>

    <vehicle id="4692" depart="277" type="semitrailer" departSpeed="5">
        <route edges="NtoC CtoS"/>
    </vehicle>

    <vehicle id="11218" depart="277" type="passenger" departSpeed="5">
        <route edges="EtoC CtoW"/>
    </vehicle>

    <vehicle id="7884" depart="277" type="passenger" departSpeed="5">
        <route edges="WtoC CtoE"/>
    </vehicle>

    <vehicle id="15890" depart="281" type="semitrailer" departSpeed="5">
        <route edges="NtoC CtoS"/>
    </vehicle>

    <vehicle id="2024" depart="294" type="passenger" departSpeed="5">
        <route edges="EtoC CtoW"/>
    </vehicle>

    <vehicle id="14259" depart="294" type="passenger" departSpeed="5">
        <route edges="WtoC CtoE"/>
    </vehicle>

    <vehicle id="14260" depart="297" type="passenger" departSpeed="5">
        <route edges="WtoC CtoE"/>
    </vehicle>

    <vehicle id="2023" depart="297" type="passenger" departSpeed="5">
        <route edges="EtoC CtoW"/>
    </vehicle>

    <vehicle id="7885" depart="298" type="passenger" departSpeed="5">
        <route edges="WtoC CtoE"/>
    </vehicle>

    <vehicle id="14261" depart="300" type="passenger" departSpeed="5">
        <route edges="WtoC CtoE"/>
    </vehicle>

    <vehicle id="14262" depart="302" type="passenger" departSpeed="5">
        <route edges="WtoC CtoE"/>
    </vehicle>

    <vehicle id="11220" depart="314" type="motorcycle" departSpeed="5">
        <route edges="EtoC CtoN"/>
    </vehicle>

    <vehicle id="2025" depart="316" type="motorcycle" departSpeed="5">
        <route edges="EtoC CtoW"/>
    </vehicle>

    <vehicle id="2026" depart="317" type="passenger" departSpeed="5">
        <route edges="EtoC CtoW"/>
    </vehicle>

    <vehicle id="7886" depart="336" type="passenger" departSpeed="5">
        <route edges="WtoC CtoS"/>
    </vehicle>

    <vehicle id="7887" depart="340" type="passenger" departSpeed="5">
        <route edges="WtoC CtoE"/>
    </vehicle>

    <vehicle id="14263" depart="341" type="passenger" departSpeed="5">
        <route edges="WtoC CtoS"/>
    </vehicle>

    <vehicle id="11221" depart="342" type="passenger" departSpeed="5">
        <route edges="EtoC CtoW"/>
    </vehicle>

    <vehicle id="11222" depart="343" type="passenger" departSpeed="5">
        <route edges="EtoC CtoW"/>
    </vehicle>

    <vehicle id="14264" depart="343" type="passenger" departSpeed="5">
        <route edges="WtoC CtoE"/>
    </vehicle>

    <vehicle id="2027" depart="344" type="passenger" departSpeed="5">
        <route edges="EtoC CtoW"/>
    </vehicle>

    <vehicle id="2028" depart="345" type="passenger" departSpeed="5">
        <route edges="EtoC CtoW"/>
    </vehicle>

    <vehicle id="16332" depart="349" type="passenger" departSpeed="5">
        <route edges="EtoC CtoS"/>
    </vehicle>

    <vehicle id="7888" depart="353" type="passenger" departSpeed="5">
        <route edges="WtoC CtoE"/>
    </vehicle>

    <vehicle id="14265" depart="354" type="passenger" departSpeed="5">
        <route edges="WtoC CtoE"/>
    </vehicle>

    <vehicle id="11224" depart="355" type="passenger" departSpeed="5">
        <route edges="EtoC CtoW"/>
    </vehicle>

    <vehicle id="4125" depart="357" type="passenger" departSpeed="5">
        <route edges="EtoC CtoS"/>
    </vehicle>

    <vehicle id="2030" depart="358" type="passenger" departSpeed="5">
        <route edges="EtoC CtoW"/>
    </vehicle>

    <vehicle id="11223" depart="361" type="passenger" departSpeed="5">
        <route edges="EtoC CtoW"/>
    </vehicle>

    <vehicle id="2029" depart="362" type="passenger" departSpeed="5">
        <route edges="EtoC CtoW"/>
    </vehicle>

    <vehicle id="11225" depart="393" type="passenger" departSpeed="5">
        <route edges="EtoC CtoW"/>
    </vehicle>

    <vehicle id="2031" depart="395" type="passenger" departSpeed="5">
        <route edges="EtoC CtoW"/>
    </vehicle>

    <vehicle id="11226" depart="397" type="passenger" departSpeed="5">
        <route edges="EtoC CtoW"/>
    </vehicle>

    <vehicle id="2032" depart="398" type="passenger" departSpeed="5">
        <route edges="EtoC CtoW"/>
    </vehicle>

    <vehicle id="5563" depart="401" type="passenger" departSpeed="5">
        <route edges="StoC CtoW"/>
    </vehicle>

    <vehicle id="11227" depart="405" type="passenger" departSpeed="5">
        <route edges="EtoC CtoW"/>
    </vehicle>

    <vehicle id="2033" depart="407" type="passenger" departSpeed="5">
        <route edges="EtoC CtoW"/>
    </vehicle>

    <vehicle id="11228" depart="408" type="passenger" departSpeed="5">
        <route edges="EtoC CtoW"/>
    </vehicle>

    <vehicle id="3574" depart="408" type="passenger" departSpeed="5">
        <route edges="StoC CtoW"/>
    </vehicle>

    <vehicle id="2034" depart="409" type="passenger" departSpeed="5">
        <route edges="EtoC CtoW"/>
    </vehicle>

    <vehicle id="11229" depart="415" type="passenger" departSpeed="5">
        <route edges="EtoC CtoW"/>
    </vehicle>

    <vehicle id="11230" depart="416" type="passenger" departSpeed="5">
        <route edges="EtoC CtoW"/>
    </vehicle>

    <vehicle id="2035" depart="417" type="passenger" departSpeed="5">
        <route edges="EtoC CtoW"/>
    </vehicle>

    <vehicle id="2036" depart="420" type="passenger" departSpeed="5">
        <route edges="EtoC CtoW"/>
    </vehicle>

    <vehicle id="7889" depart="435" type="passenger" departSpeed="5">
        <route edges="WtoC CtoN"/>
    </vehicle>

    <vehicle id="16529" depart="438" type="passenger" departSpeed="5">
        <route edges="WtoC CtoN"/>
    </vehicle>

    <vehicle id="7890" depart="440" type="passenger" departSpeed="5">
        <route edges="WtoC CtoS"/>
    </vehicle>

    <vehicle id="14266" depart="443" type="passenger" departSpeed="5">
        <route edges="WtoC CtoS"/>
    </vehicle>

    <vehicle id="7891" depart="452" type="passenger" departSpeed="5">
        <route edges="WtoC CtoE"/>
    </vehicle>

    <vehicle id="7892" depart="452" type="passenger" departSpeed="5">
        <route edges="WtoC CtoE"/>
    </vehicle>

    <vehicle id="14267" depart="454" type="passenger" departSpeed="5">
        <route edges="WtoC CtoE"/>
    </vehicle>

    <vehicle id="11231" depart="457" type="passenger" departSpeed="5">
        <route edges="EtoC CtoW"/>
    </vehicle>

    <vehicle id="11232" depart="458" type="passenger" departSpeed="5">
        <route edges="EtoC CtoW"/>
    </vehicle>

    <vehicle id="2037" depart="459" type="passenger" departSpeed="5">
        <route edges="EtoC CtoW"/>
    </vehicle>

    <vehicle id="2038" depart="461" type="passenger" departSpeed="5">
        <route edges="EtoC CtoW"/>
    </vehicle>

    <vehicle id="11233" depart="461" type="passenger" departSpeed="5">
        <route edges="EtoC CtoW"/>
    </vehicle>

    <vehicle id="2039" depart="463" type="passenger" departSpeed="5">
        <route edges="EtoC CtoW"/>
    </vehicle>

    <vehicle id="11234" depart="463" type="passenger" departSpeed="5">
        <route edges="EtoC CtoW"/>
    </vehicle>

    <vehicle id="2040" depart="465" type="passenger" departSpeed="5">
        <route edges="EtoC CtoW"/>
    </vehicle>

    <vehicle id="4694" depart="483" type="passenger" departSpeed="5">
        <route edges="NtoC CtoS"/>
    </vehicle>

    <vehicle id="4695" depart="496" type="passenger" departSpeed="5">
        <route edges="NtoC CtoS"/>
    </vehicle>

    <vehicle id="15892" depart="514" type="passenger" departSpeed="5">
        <route edges="NtoC CtoS"/>
    </vehicle>

    <vehicle id="7893" depart="518" type="passenger" departSpeed="5">
        <route edges="WtoC CtoS"/>
    </vehicle>

    <vehicle id="15893" depart="518" type="passenger" departSpeed="5">
        <route edges="NtoC CtoS"/>
    </vehicle>

    <vehicle id="14268" depart="524" type="passenger" departSpeed="5">
        <route edges="WtoC CtoS"/>
    </vehicle>

    <vehicle id="4696" depart="525" type="passenger" departSpeed="5">
        <route edges="NtoC CtoE"/>
    </vehicle>

    <vehicle id="15894" depart="529" type="passenger" departSpeed="5">
        <route edges="NtoC CtoE"/>
    </vehicle>

    <vehicle id="5564" depart="533" type="passenger" departSpeed="5">
        <route edges="StoC CtoN"/>
    </vehicle>

    <vehicle id="7894" depart="536" type="passenger" departSpeed="5">
        <route edges="WtoC CtoE"/>
    </vehicle>

    <vehicle id="11235" depart="537" type="passenger" departSpeed="5">
        <route edges="EtoC CtoW"/>
    </vehicle>

    <vehicle id="2041" depart="539" type="passenger" departSpeed="5">
        <route edges="EtoC CtoW"/>
    </vehicle>

    <vehicle id="11236" depart="543" type="passenger" departSpeed="5">
        <route edges="EtoC CtoW"/>
    </vehicle>

    <vehicle id="4126" depart="544" type="passenger" departSpeed="5">
        <route edges="EtoC CtoS"/>
    </vehicle>

    <vehicle id="2042" depart="545" type="passenger" departSpeed="5">
        <route edges="EtoC CtoW"/>
    </vehicle>

    <vehicle id="11237" depart="545" type="passenger" departSpeed="5">
        <route edges="EtoC CtoW"/>
    </vehicle>

    <vehicle id="2043" depart="547" type="passenger" departSpeed="5">
        <route edges="EtoC CtoW"/>
    </vehicle>

    <vehicle id="11238" depart="551" type="passenger" departSpeed="5">
        <route edges="EtoC CtoW"/>
    </vehicle>

    <vehicle id="2044" depart="553" type="passenger" departSpeed="5">
        <route edges="EtoC CtoW"/>
    </vehicle>

    <vehicle id="11239" depart="553" type="passenger" departSpeed="5">
        <route edges="EtoC CtoW"/>
    </vehicle>

    <vehicle id="11240" depart="554" type="passenger" departSpeed="5">
        <route edges="EtoC CtoW"/>
    </vehicle>

    <vehicle id="2045" depart="554" type="passenger" departSpeed="5">
        <route edges="EtoC CtoW"/>
    </vehicle>

    <vehicle id="2046" depart="556" type="passenger" departSpeed="5">
        <route edges="EtoC CtoW"/>
    </vehicle>

    <vehicle id="4697" depart="558" type="passenger" departSpeed="5">
        <route edges="NtoC CtoS"/>
    </vehicle>

    <vehicle id="11241" depart="559" type="passenger" departSpeed="5">
        <route edges="EtoC CtoW"/>
    </vehicle>

    <vehicle id="2047" depart="562" type="passenger" departSpeed="5">
        <route edges="EtoC CtoW"/>
    </vehicle>

    <vehicle id="11242" depart="563" type="passenger" departSpeed="5">
        <route edges="EtoC CtoW"/>
    </vehicle>

    <vehicle id="2048" depart="566" type="passenger" departSpeed="5">
        <route edges="EtoC CtoW"/>
    </vehicle>

    <vehicle id="4698" depart="566" type="passenger" departSpeed="5">
        <route edges="NtoC CtoS"/>
    </vehicle>

    <vehicle id="4699" depart="581" type="delivery" departSpeed="5">
        <route edges="NtoC CtoS"/>
    </vehicle>

    <vehicle id="7895" depart="585" type="passenger" departSpeed="5">
        <route edges="WtoC CtoE"/>
    </vehicle>

    <vehicle id="14269" depart="587" type="passenger" departSpeed="5">
        <route edges="WtoC CtoE"/>
    </vehicle>

    <vehicle id="15897" depart="592" type="delivery" departSpeed="5">
        <route edges="NtoC CtoS"/>
    </vehicle>

    <vehicle id="15895" depart="592" type="passenger" departSpeed="5">
        <route edges="NtoC CtoS"/>
    </vehicle>

    <vehicle id="4700" depart="594" type="passenger" departSpeed="5">
        <route edges="NtoC CtoS"/>
    </vehicle>

    <vehicle id="15896" depart="595" type="passenger" departSpeed="5">
        <route edges="NtoC CtoS"/>
    </vehicle>

    <vehicle id="15898" depart="598" type="passenger" departSpeed="5">
        <route edges="NtoC CtoS"/>
    </vehicle>

    <vehicle id="3575" depart="600" type="passenger" departSpeed="5">
        <route edges="StoC CtoN"/>
    </vehicle>

    <vehicle id="7897" depart="604" type="passenger" departSpeed="5">
        <route edges="WtoC CtoE"/>
    </vehicle>

    <vehicle id="4702" depart="608" type="passenger" departSpeed="5">
        <route edges="NtoC CtoS"/>
    </vehicle>

    <vehicle id="11244" depart="614" type="passenger" departSpeed="5">
        <route edges="EtoC CtoW"/>
    </vehicle>

    <vehicle id="14270" depart="615" type="passenger" departSpeed="5">
        <route edges="WtoC CtoE"/>
    </vehicle>

    <vehicle id="2049" depart="616" type="passenger" departSpeed="5">
        <route edges="EtoC CtoW"/>
    </vehicle>

    <vehicle id="7898" depart="617" type="passenger" departSpeed="5">
        <route edges="WtoC CtoE"/>
    </vehicle>

    <vehicle id="11245" depart="617" type="passenger" departSpeed="5">
        <route edges="EtoC CtoW"/>
    </vehicle>

    <vehicle id="7896" depart="617" type="passenger" departSpeed="5">
        <route edges="WtoC CtoE"/>
    </vehicle>

    <vehicle id="14271" depart="617" type="passenger" departSpeed="5">
        <route edges="WtoC CtoE"/>
    </vehicle>

    <vehicle id="2050" depart="619" type="passenger" departSpeed="5">
        <route edges="EtoC CtoW"/>
    </vehicle>

    <vehicle id="11243" depart="620" type="passenger" departSpeed="5">
        <route edges="EtoC CtoW"/>
    </vehicle>

    <vehicle id="14272" depart="620" type="passenger" departSpeed="5">
        <route edges="WtoC CtoE"/>
    </vehicle>

    <vehicle id="11246" depart="622" type="passenger" departSpeed="5">
        <route edges="EtoC CtoW"/>
    </vehicle>

    <vehicle id="4703" depart="622" type="passenger" departSpeed="5">
        <route edges="NtoC CtoW"/>
    </vehicle>

    <vehicle id="2051" depart="622" type="passenger" departSpeed="5">
        <route edges="EtoC CtoW"/>
    </vehicle>

    <vehicle id="7899" depart="622" type="passenger" departSpeed="5">
        <route edges="WtoC CtoE"/>
    </vehicle>

    <vehicle id="2052" depart="624" type="passenger" departSpeed="5">
        <route edges="EtoC CtoW"/>
    </vehicle>

    <vehicle id="11247" depart="624" type="passenger" departSpeed="5">
        <route edges="EtoC CtoW"/>
    </vehicle>

    <vehicle id="7900" depart="625" type="passenger" departSpeed="5">
        <route edges="WtoC CtoE"/>
    </vehicle>

    <vehicle id="14273" depart="625" type="passenger" departSpeed="5">
        <route edges="WtoC CtoE"/>
    </vehicle>

    <vehicle id="2053" depart="625" type="passenger" departSpeed="5">
        <route edges="EtoC CtoW"/>
    </vehicle>

    <vehicle id="14274" depart="627" type="passenger" departSpeed="5">
        <route edges="WtoC CtoE"/>
    </vehicle>

    <vehicle id="11249" depart="627" type="passenger" departSpeed="5">
        <route edges="EtoC CtoW"/>
    </vehicle>

    <vehicle id="2055" depart="629" type="passenger" departSpeed="5">
        <route edges="EtoC CtoW"/>
    </vehicle>

    <vehicle id="11250" depart="629" type="passenger" departSpeed="5">
        <route edges="EtoC CtoW"/>
    </vehicle>

    <vehicle id="2056" depart="631" type="passenger" departSpeed="5">
        <route edges="EtoC CtoW"/>
    </vehicle>

    <vehicle id="11248" depart="631" type="passenger" departSpeed="5">
        <route edges="EtoC CtoW"/>
    </vehicle>

    <vehicle id="2054" depart="633" type="passenger" departSpeed="5">
        <route edges="EtoC CtoW"/>
    </vehicle>

    <vehicle id="2057" depart="634" type="delivery" departSpeed="5">
        <route edges="EtoC CtoW"/>
    </vehicle>

    <vehicle id="2058" depart="635" type="passenger" departSpeed="5">
        <route edges="EtoC CtoW"/>
    </vehicle>

    <vehicle id="14275" depart="640" type="passenger" departSpeed="5">
        <route edges="WtoC CtoE"/>
    </vehicle>

    <vehicle id="11251" depart="666" type="passenger" departSpeed="5">
        <route edges="EtoC CtoW"/>
    </vehicle>

    <vehicle id="11252" depart="667" type="passenger" departSpeed="5">
        <route edges="EtoC CtoW"/>
    </vehicle>

    <vehicle id="2059" depart="667" type="passenger" departSpeed="5">
        <route edges="EtoC CtoW"/>
    </vehicle>

    <vehicle id="2060" depart="669" type="passenger" departSpeed="5">
        <route edges="EtoC CtoW"/>
    </vehicle>

    <vehicle id="11253" depart="671" type="passenger" departSpeed="5">
        <route edges="EtoC CtoW"/>
    </vehicle>

    <vehicle id="7901" depart="676" type="passenger" departSpeed="5">
        <route edges="WtoC CtoE"/>
    </vehicle>

    <vehicle id="15900" depart="676" type="passenger" departSpeed="5">
        <route edges="NtoC CtoS"/>
    </vehicle>

    <vehicle id="4701" depart="677" type="passenger" departSpeed="5">
        <route edges="NtoC CtoS"/>
    </vehicle>

    <vehicle id="15901" depart="679" type="passenger" departSpeed="5">
        <route edges="NtoC CtoW"/>
    </vehicle>
