<?xml version="1.0" encoding="UTF-8"?>

<!-- generated on 2021-06-28 19:36:03 by Eclipse SUMO netedit Version 1.9.2
<configuration xmlns:xsi="http://www.w3.org/2001/XMLSchema-instance" xsi:noNamespaceSchemaLocation="http://sumo.dlr.de/xsd/netconvertConfiguration.xsd">

    <input>
        <sumo-net-file value="\\wsl$\Ubuntu-18.04\home\vtoan\UTC\tslib\traffic-sumo\most\most.net.xml"/>
    </input>

    <output>
        <output-file value="\\wsl$\Ubuntu-18.04\home\vtoan\UTC\tslib\traffic-sumo\most\most.net.xml"/>
    </output>

    <processing>
        <geometry.min-radius.fix.railways value="false"/>
        <geometry.max-grade.fix value="false"/>
        <offset.disable-normalization value="true"/>
        <lefthand value="false"/>
    </processing>

    <junctions>
        <no-turnarounds value="true"/>
        <junctions.corner-detail value="5"/>
        <junctions.limit-turn-speed value="-1"/>
        <rectangular-lane-cut value="false"/>
    </junctions>

    <pedestrian>
        <walkingareas value="false"/>
    </pedestrian>

    <report>
        <aggregate-warnings value="5"/>
    </report>

</configuration>
-->

<net version="1.9" junctionCornerDetail="5" xmlns:xsi="http://www.w3.org/2001/XMLSchema-instance" xsi:noNamespaceSchemaLocation="http://sumo.dlr.de/xsd/net_file.xsd">

    <location netOffset="-372770.12,-4843872.33" convBoundary="0.00,0.00,827.72,899.45" origBoundary="7.419972,43.736993,7.430138,43.745152" projParameter="+proj=utm +zone=32 +ellps=WGS84 +datum=WGS84 +units=m +no_defs"/>

    <type id="cycleway.lane" allow="bicycle" bikeLaneWidth="-1.00"/>
    <type id="cycleway.opposite_lane" allow="bicycle" bikeLaneWidth="-1.00"/>
    <type id="cycleway.opposite_track" allow="bicycle" bikeLaneWidth="-1.00"/>
    <type id="cycleway.track" allow="bicycle" bikeLaneWidth="-1.00"/>
    <type id="highway.bridleway" priority="1" numLanes="1" speed="2.78" allow="pedestrian bicycle" oneway="1" width="2.00"/>
    <type id="highway.bus_guideway" priority="1" numLanes="1" speed="8.33" allow="bus" oneway="1"/>
    <type id="highway.cycleway" priority="1" numLanes="1" speed="5.56" allow="bicycle" oneway="1" width="2.00"/>
    <type id="highway.footway" priority="1" numLanes="1" speed="2.78" allow="pedestrian" oneway="1" width="2.00"/>
    <type id="highway.ford" priority="1" numLanes="1" speed="2.78" allow="army" oneway="1"/>
    <type id="highway.living_street" priority="3" numLanes="1" speed="2.78" disallow="tram rail_urban rail rail_electric ship" oneway="1"/>
    <type id="highway.motorway" priority="13" numLanes="3" speed="27.78" allow="private emergency authority army vip passenger hov taxi bus coach delivery truck trailer motorcycle evehicle custom1 custom2" oneway="1"/>
    <type id="highway.motorway_bridge" priority="13" numLanes="3" speed="44.44" allow="private emergency authority army vip passenger hov taxi bus coach delivery truck trailer motorcycle evehicle custom1 custom2" oneway="1"/>
    <type id="highway.motorway_link" priority="12" numLanes="1" speed="16.67" allow="private emergency authority army vip passenger hov taxi bus coach delivery truck trailer motorcycle evehicle custom1 custom2" oneway="1"/>
    <type id="highway.motorway_tunnel" priority="13" numLanes="3" speed="44.44" allow="private emergency authority army vip passenger hov taxi bus coach delivery truck trailer motorcycle evehicle custom1 custom2" oneway="1"/>
    <type id="highway.path" priority="1" numLanes="1" speed="2.78" allow="pedestrian bicycle" oneway="1" width="2.00"/>
    <type id="highway.pedestrian" priority="1" numLanes="1" speed="2.78" allow="pedestrian bicycle" oneway="1" width="2.00"/>
    <type id="highway.primary" priority="9" numLanes="2" speed="13.89" disallow="pedestrian bicycle tram rail_urban rail rail_electric ship" oneway="1" sidewalkWidth="-1.00"/>
    <type id="highway.primary_bridge" priority="9" numLanes="2" speed="27.78" disallow="pedestrian bicycle tram rail_urban rail rail_electric ship" oneway="1" sidewalkWidth="-1.00"/>
    <type id="highway.primary_link" priority="8" numLanes="1" speed="13.89" disallow="pedestrian bicycle tram rail_urban rail rail_electric ship" oneway="1" sidewalkWidth="-1.00"/>
    <type id="highway.primary_tunnel" priority="9" numLanes="2" speed="27.78" disallow="pedestrian bicycle tram rail_urban rail rail_electric ship" oneway="1"/>
    <type id="highway.raceway" priority="14" numLanes="2" speed="83.33" allow="vip" oneway="1"/>
    <type id="highway.residential" priority="4" numLanes="1" speed="13.89" disallow="tram rail_urban rail rail_electric ship" oneway="1" sidewalkWidth="-1.00"/>
    <type id="highway.residential_bridge" priority="4" numLanes="1" speed="13.89" disallow="tram rail_urban rail rail_electric ship" oneway="1" sidewalkWidth="-1.00"/>
    <type id="highway.residential_tunnel" priority="4" numLanes="1" speed="13.89" disallow="tram rail_urban rail rail_electric ship" oneway="1" sidewalkWidth="-1.00"/>
    <type id="highway.secondary" priority="7" numLanes="2" speed="13.89" disallow="pedestrian tram rail_urban rail rail_electric ship" oneway="1" sidewalkWidth="-1.00"/>
    <type id="highway.secondary_bridge" priority="7" numLanes="2" speed="27.78" disallow="pedestrian tram rail_urban rail rail_electric ship" oneway="1" sidewalkWidth="-1.00"/>
    <type id="highway.secondary_link" priority="6" numLanes="1" speed="13.89" disallow="pedestrian tram rail_urban rail rail_electric ship" oneway="1" sidewalkWidth="-1.00"/>
    <type id="highway.secondary_tunnel" priority="7" numLanes="2" speed="27.78" disallow="pedestrian tram rail_urban rail rail_electric ship" oneway="1"/>
    <type id="highway.service" priority="1" numLanes="1" speed="5.56" disallow="tram rail_urban rail rail_electric ship" oneway="1"/>
    <type id="highway.services" priority="1" numLanes="1" speed="8.33" disallow="tram rail_urban rail rail_electric ship" oneway="1"/>
    <type id="highway.stairs" priority="1" numLanes="1" speed="1.39" allow="pedestrian" oneway="1" width="2.00"/>
    <type id="highway.step" priority="1" numLanes="1" speed="1.39" allow="pedestrian" oneway="1" width="2.00"/>
    <type id="highway.steps" priority="1" numLanes="1" speed="1.39" allow="pedestrian" oneway="1" width="2.00"/>
    <type id="highway.tertiary" priority="6" numLanes="1" speed="13.89" disallow="pedestrian tram rail_urban rail rail_electric ship" oneway="1" sidewalkWidth="-1.00"/>
    <type id="highway.tertiary_bridge" priority="6" numLanes="1" speed="22.22" disallow="pedestrian tram rail_urban rail rail_electric ship" oneway="1" sidewalkWidth="-1.00"/>
    <type id="highway.tertiary_link" priority="5" numLanes="1" speed="13.89" disallow="pedestrian tram rail_urban rail rail_electric ship" oneway="1" sidewalkWidth="-1.00"/>
    <type id="highway.tertiary_tunnel" priority="6" numLanes="1" speed="22.22" disallow="pedestrian tram rail_urban rail rail_electric ship" oneway="1"/>
    <type id="highway.track" priority="1" numLanes="1" speed="5.56" disallow="tram rail_urban rail rail_electric ship" oneway="1"/>
    <type id="highway.trunk" priority="11" numLanes="2" speed="13.89" disallow="pedestrian bicycle tram rail_urban rail rail_electric ship" oneway="1"/>
    <type id="highway.trunk_bridge" priority="11" numLanes="2" speed="27.78" disallow="pedestrian bicycle tram rail_urban rail rail_electric ship" oneway="1"/>
    <type id="highway.trunk_link" priority="10" numLanes="1" speed="13.89" disallow="pedestrian bicycle tram rail_urban rail rail_electric ship" oneway="1"/>
    <type id="highway.trunk_tunnel" priority="11" numLanes="2" speed="27.78" disallow="pedestrian bicycle tram rail_urban rail rail_electric ship" oneway="1"/>
    <type id="highway.unclassified" priority="5" numLanes="1" speed="13.89" disallow="tram rail_urban rail rail_electric ship" oneway="1" sidewalkWidth="-1.00"/>
    <type id="highway.unsurfaced" priority="1" numLanes="1" speed="8.33" disallow="tram rail_urban rail rail_electric ship" oneway="1"/>
    <type id="railway.light_rail" priority="15" numLanes="1" speed="27.78" allow="rail_urban" oneway="1"/>
    <type id="railway.preserved" priority="15" numLanes="1" speed="27.78" allow="rail" oneway="1"/>
    <type id="railway.rail" priority="15" numLanes="1" speed="83.33" allow="rail rail_electric" oneway="1"/>
    <type id="railway.subway" priority="15" numLanes="1" speed="27.78" allow="rail_urban" oneway="1"/>
    <type id="railway.tram" priority="15" numLanes="1" speed="13.89" allow="tram" oneway="1"/>

    <edge id=":10026_0" function="internal">
        <lane id=":10026_0_0" index="0" disallow="pedestrian tram rail_urban rail rail_electric rail_fast ship" speed="16.95" length="16.68" shape="324.19,331.28,70.80 318.88,328.71,70.83 314.50,327.38,70.85 311.06,327.27,70.87 308.54,328.40,70.88"/>
    </edge>
    <edge id=":10026_1" function="internal">
        <lane id=":10026_1_0" index="0" disallow="pedestrian tram rail_urban rail rail_electric rail_fast ship" speed="20.00" length="9.91" shape="324.19,331.28,70.80 315.55,326.48,70.77"/>
        <lane id=":10026_1_1" index="1" disallow="pedestrian tram rail_urban rail rail_electric rail_fast ship" speed="20.00" length="9.91" shape="325.69,328.46,70.80 317.01,323.63,70.77"/>
    </edge>
    <edge id=":10026_3" function="internal">
        <lane id=":10026_3_0" index="0" disallow="pedestrian tram rail_urban rail rail_electric rail_fast ship" speed="16.95" length="4.46" shape="325.69,328.46,70.80 322.90,325.40,70.80 322.92,325.09,70.80"/>
    </edge>
    <edge id=":10026_14" function="internal">
        <lane id=":10026_14_0" index="0" disallow="pedestrian tram rail_urban rail rail_electric rail_fast ship" speed="16.95" length="12.14" shape="322.92,325.09,70.80 323.14,321.82,70.80 325.79,318.68,70.80 330.21,316.92,70.80"/>
    </edge>
    <edge id=":10026_4" function="internal">
        <lane id=":10026_4_0" index="0" disallow="pedestrian tram rail_urban rail rail_electric rail_fast ship" speed="16.95" length="10.73" shape="319.91,317.92,70.77 322.77,318.86,70.78 324.94,318.58,70.79 327.17,317.72,70.79 330.21,316.92,70.80"/>
    </edge>
    <edge id=":10026_5" function="internal">
        <lane id=":10026_5_0" index="0" disallow="pedestrian tram rail_urban rail rail_electric rail_fast ship" speed="20.00" length="10.03" shape="319.91,317.92,70.77 328.71,322.81,70.80"/>
        <lane id=":10026_5_1" index="1" disallow="pedestrian tram rail_urban rail rail_electric rail_fast ship" speed="20.00" length="10.03" shape="318.46,320.78,70.77 327.20,325.64,70.80"/>
    </edge>
    <edge id=":10026_7" function="internal">
        <lane id=":10026_7_0" index="0" disallow="pedestrian tram rail_urban rail rail_electric rail_fast ship" speed="16.95" length="7.86" shape="318.46,320.78,70.77 317.39,322.07,70.79 314.12,324.52,70.82 312.39,325.71,70.84"/>
    </edge>
    <edge id=":10026_15" function="internal">
        <lane id=":10026_15_0" index="0" disallow="pedestrian tram rail_urban rail rail_electric rail_fast ship" speed="16.95" length="4.70" shape="312.39,325.71,70.84 310.54,327.00,70.86 308.54,328.40,70.88"/>
    </edge>
    <edge id=":10026_8" function="internal">
        <lane id=":10026_8_0" index="0" disallow="pedestrian tram rail_urban rail rail_electric rail_fast ship" speed="16.95" length="7.96" shape="309.06,323.23,70.80 317.01,323.63,70.77"/>
    </edge>
    <edge id=":10026_9" function="internal">
        <lane id=":10026_9_0" index="0" disallow="pedestrian tram rail_urban rail rail_electric rail_fast ship" speed="16.95" length="19.80" shape="309.06,323.23,70.80 316.43,322.37,70.80 322.16,322.02,70.80 326.25,322.16,70.80 328.71,322.81,70.80"/>
    </edge>
    <edge id=":10026_10" function="internal">
        <lane id=":10026_10_0" index="0" disallow="pedestrian tram rail_urban rail rail_electric rail_fast ship" speed="13.89" length="5.20" shape="309.06,323.23,70.80 308.54,328.40,70.88"/>
    </edge>
    <edge id=":10026_11" function="internal">
        <lane id=":10026_11_0" index="0" disallow="pedestrian tram rail_urban rail rail_electric rail_fast ship" speed="16.95" length="9.63" shape="306.47,325.96,70.88 308.17,325.03,70.86 310.25,324.81,70.83 312.71,325.29,70.81 315.55,326.48,70.77"/>
    </edge>
    <edge id=":10026_12" function="internal">
        <lane id=":10026_12_0" index="0" disallow="pedestrian tram rail_urban rail rail_electric rail_fast ship" speed="13.89" length="25.71" shape="306.47,325.96,70.88 312.70,321.92,70.86 319.34,319.29,70.83 325.49,317.73,70.81 330.21,316.92,70.80"/>
    </edge>
    <edge id=":10026_13" function="internal">
        <lane id=":10026_13_0" index="0" disallow="pedestrian tram rail_urban rail rail_electric rail_fast ship" speed="16.95" length="0.88" shape="306.47,325.96,70.88 307.22,325.51,70.88"/>
    </edge>
    <edge id=":10026_16" function="internal">
        <lane id=":10026_16_0" index="0" disallow="pedestrian tram rail_urban rail rail_electric rail_fast ship" speed="16.95" length="21.27" shape="307.22,325.51,70.88 310.91,323.27,70.86 315.85,322.31,70.84 321.28,323.10,70.82 327.20,325.64,70.80"/>
    </edge>
    <edge id=":8738_0" function="internal">
        <lane id=":8738_0_0" index="0" disallow="pedestrian tram rail_urban rail rail_electric rail_fast ship" speed="13.89" length="11.20" shape="398.52,855.23,140.49 395.88,854.61,140.50 393.61,855.23,140.50 391.72,857.11,140.50 390.19,860.23,140.50"/>
    </edge>
    <edge id=":8738_1" function="internal">
        <lane id=":8738_1_0" index="0" disallow="pedestrian tram rail_urban rail rail_electric rail_fast ship" speed="13.89" length="14.42" shape="398.52,855.23,140.49 385.02,850.17,140.50"/>
    </edge>
    <edge id=":8738_2" function="internal">
        <lane id=":8738_2_0" index="0" disallow="pedestrian tram rail_urban rail rail_electric rail_fast ship" speed="13.89" length="14.12" shape="386.24,847.21,140.50 399.47,852.15,140.50"/>
    </edge>
    <edge id=":8738_3" function="internal">
        <lane id=":8738_3_0" index="0" disallow="pedestrian tram rail_urban rail rail_electric rail_fast ship" speed="13.89" length="4.95" shape="386.24,847.21,140.50 389.30,849.19,140.50 389.97,850.31,140.50"/>
    </edge>
    <edge id=":8738_6" function="internal">
        <lane id=":8738_6_0" index="0" disallow="pedestrian tram rail_urban rail rail_electric rail_fast ship" speed="13.89" length="10.33" shape="389.97,850.31,140.50 390.98,852.02,140.50 391.27,855.70,140.50 390.19,860.23,140.50"/>
    </edge>
    <edge id=":8738_4" function="internal">
        <lane id=":8738_4_0" index="0" disallow="pedestrian tram rail_urban rail rail_electric rail_fast ship" speed="13.89" length="9.71" shape="387.59,858.21,140.50 388.45,855.51,140.50 388.31,853.28,140.50 387.16,851.49,140.50 385.02,850.17,140.50"/>
    </edge>
    <edge id=":8738_5" function="internal">
        <lane id=":8738_5_0" index="0" disallow="pedestrian tram rail_urban rail rail_electric rail_fast ship" speed="13.89" length="15.08" shape="387.59,858.21,140.50 389.97,854.32,140.50 392.74,852.01,140.50 395.91,851.29,140.50 399.47,852.15,140.50"/>
    </edge>
    <edge id=":8746_0" function="internal">
        <lane id=":8746_0_0" index="0" disallow="pedestrian tram rail_urban rail rail_electric rail_fast ship" speed="13.89" length="3.32" shape="399.09,574.36,78.20 398.22,573.90,78.20 397.60,573.56,78.20 396.95,573.39,78.20 396.00,573.45,78.20"/>
    </edge>
    <edge id=":8770_0" function="internal">
        <lane id=":8770_0_0" index="0" disallow="pedestrian tram rail_urban rail rail_electric rail_fast ship" speed="13.89" length="5.12" shape="222.14,545.66,99.96 220.45,540.82,99.90"/>
    </edge>
    <edge id=":8770_1" function="internal">
        <lane id=":8770_1_0" index="0" disallow="pedestrian tram rail_urban rail rail_electric rail_fast ship" speed="13.89" length="5.28" shape="223.46,539.72,99.90 225.20,544.70,99.96"/>
    </edge>
    <edge id=":8778_0" function="internal">
        <lane id=":8778_0_0" index="0" disallow="pedestrian tram rail_urban rail rail_electric rail_fast ship" speed="13.89" length="7.32" shape="623.63,844.82,85.50 622.59,843.03,85.50 621.30,841.83,85.50 619.74,841.22,85.50 617.92,841.20,85.50"/>
    </edge>
    <edge id=":8778_1" function="internal">
        <lane id=":8778_1_0" index="0" disallow="pedestrian tram rail_urban rail rail_electric rail_fast ship" speed="13.89" length="7.51" shape="625.16,836.44,85.50 624.76,838.56,85.50 624.96,840.06,85.50 625.60,841.53,85.50 626.56,843.55,85.50"/>
    </edge>
    <edge id=":8778_2" function="internal">
        <lane id=":8778_2_0" index="0" disallow="pedestrian tram rail_urban rail rail_electric rail_fast ship" speed="13.89" length="9.16" shape="625.16,836.44,85.50 624.30,838.19,85.50 622.80,839.57,85.50 620.68,840.57,85.50 617.92,841.20,85.50"/>
    </edge>
    <edge id=":8779_0" function="internal">
        <lane id=":8779_0_0" index="0" disallow="pedestrian tram rail_urban rail rail_electric rail_fast ship" speed="13.89" length="4.67" shape="791.47,841.68,28.00 791.55,843.12,28.00 791.15,843.92,28.00 790.27,844.08,28.00 788.91,843.60,28.00"/>
    </edge>
    <edge id=":8781_0" function="internal">
        <lane id=":8781_0_0" index="0" disallow="pedestrian tram rail_urban rail rail_electric rail_fast ship" speed="13.89" length="5.28" shape="424.99,654.80,82.02 421.49,650.86,81.81"/>
    </edge>
    <edge id=":8789_0" function="internal">
        <lane id=":8789_0_0" index="0" disallow="pedestrian tram rail_urban rail rail_electric rail_fast ship" speed="20.00" length="5.00" shape="605.41,554.30,54.47 601.89,550.75,54.51"/>
        <lane id=":8789_0_1" index="1" disallow="pedestrian tram rail_urban rail rail_electric rail_fast ship" speed="20.00" length="5.00" shape="607.69,552.05,54.47 604.17,548.50,54.51"/>
    </edge>
    <edge id=":8789_2" function="internal">
        <lane id=":8789_2_0" index="0" disallow="pedestrian tram rail_urban rail rail_electric rail_fast ship" speed="20.00" length="5.00" shape="608.71,544.00,54.51 612.23,547.55,54.47"/>
        <lane id=":8789_2_1" index="1" disallow="pedestrian tram rail_urban rail rail_electric rail_fast ship" speed="20.00" length="5.00" shape="606.44,546.25,54.51 609.96,549.80,54.47"/>
    </edge>
    <edge id=":8794_0" function="internal">
        <lane id=":8794_0_0" index="0" disallow="pedestrian tram rail_urban rail rail_electric rail_fast ship" speed="13.89" length="11.94" shape="373.42,210.10,55.32 371.95,207.53,55.32 369.83,205.84,55.31 367.08,205.03,55.31 363.68,205.09,55.30"/>
    </edge>
    <edge id=":8794_1" function="internal">
        <lane id=":8794_1_0" index="0" disallow="pedestrian tram rail_urban rail rail_electric rail_fast ship" speed="13.89" length="16.38" shape="373.42,210.10,55.32 367.14,194.97,55.15"/>
    </edge>
    <edge id=":8794_2" function="internal">
        <lane id=":8794_2_0" index="0" disallow="pedestrian tram rail_urban rail rail_electric rail_fast ship" speed="13.89" length="5.73" shape="373.42,210.10,55.32 372.51,206.08,55.29 372.83,204.50,55.27"/>
    </edge>
    <edge id=":8794_12" function="internal">
        <lane id=":8794_12_0" index="0" disallow="pedestrian tram rail_urban rail rail_electric rail_fast ship" speed="13.89" length="9.10" shape="372.83,204.50,55.27 373.16,202.85,55.26 375.38,200.41,55.23 379.16,198.77,55.19"/>
    </edge>
    <edge id=":8794_3" function="internal">
        <lane id=":8794_3_0" index="0" disallow="pedestrian tram rail_urban rail rail_electric rail_fast ship" speed="13.89" length="9.29" shape="380.00,201.86,55.20 377.63,202.89,55.23 376.25,204.41,55.26 375.84,206.43,55.29 376.41,208.95,55.32"/>
    </edge>
    <edge id=":8794_4" function="internal">
        <lane id=":8794_4_0" index="0" disallow="pedestrian tram rail_urban rail rail_electric rail_fast ship" speed="13.89" length="16.66" shape="380.00,201.86,55.20 375.23,203.13,55.23 371.92,203.88,55.25 368.58,204.43,55.27 363.68,205.09,55.30"/>
    </edge>
    <edge id=":8794_5" function="internal">
        <lane id=":8794_5_0" index="0" disallow="pedestrian tram rail_urban rail rail_electric rail_fast ship" speed="13.89" length="6.13" shape="380.00,201.86,55.20 375.92,202.32,55.18 373.98,201.77,55.18"/>
    </edge>
    <edge id=":8794_13" function="internal">
        <lane id=":8794_13_0" index="0" disallow="pedestrian tram rail_urban rail rail_electric rail_fast ship" speed="13.89" length="10.00" shape="373.98,201.77,55.18 372.41,201.33,55.17 369.49,198.88,55.16 367.14,194.97,55.15"/>
    </edge>
    <edge id=":8794_6" function="internal">
        <lane id=":8794_6_0" index="0" disallow="pedestrian tram rail_urban rail rail_electric rail_fast ship" speed="13.89" length="11.52" shape="370.07,193.67,55.15 371.76,196.53,55.16 373.84,198.33,55.17 376.31,199.08,55.18 379.16,198.77,55.19"/>
    </edge>
    <edge id=":8794_7" function="internal">
        <lane id=":8794_7_0" index="0" disallow="pedestrian tram rail_urban rail rail_electric rail_fast ship" speed="13.89" length="16.54" shape="370.07,193.67,55.15 376.41,208.95,55.32"/>
    </edge>
    <edge id=":8794_8" function="internal">
        <lane id=":8794_8_0" index="0" disallow="pedestrian tram rail_urban rail rail_electric rail_fast ship" speed="13.89" length="6.55" shape="370.07,193.67,55.15 371.33,198.13,55.19 370.97,200.01,55.21"/>
    </edge>
    <edge id=":8794_14" function="internal">
        <lane id=":8794_14_0" index="0" disallow="pedestrian tram rail_urban rail rail_electric rail_fast ship" speed="13.89" length="9.60" shape="370.97,200.01,55.21 370.68,201.51,55.22 368.13,203.83,55.26 363.68,205.09,55.30"/>
    </edge>
    <edge id=":8794_9" function="internal">
        <lane id=":8794_9_0" index="0" disallow="pedestrian tram rail_urban rail rail_electric rail_fast ship" speed="13.89" length="9.83" shape="363.25,201.92,55.30 365.96,201.15,55.26 367.52,199.74,55.22 367.91,197.68,55.19 367.14,194.97,55.15"/>
    </edge>
    <edge id=":8794_10" function="internal">
        <lane id=":8794_10_0" index="0" disallow="pedestrian tram rail_urban rail rail_electric rail_fast ship" speed="13.89" length="16.24" shape="363.25,201.92,55.30 368.03,201.27,55.27 371.29,200.74,55.25 374.51,200.01,55.23 379.16,198.77,55.19"/>
    </edge>
    <edge id=":8794_11" function="internal">
        <lane id=":8794_11_0" index="0" disallow="pedestrian tram rail_urban rail rail_electric rail_fast ship" speed="13.89" length="6.93" shape="363.25,201.92,55.30 367.81,201.86,55.31 370.07,202.56,55.31"/>
    </edge>
    <edge id=":8794_15" function="internal">
        <lane id=":8794_15_0" index="0" disallow="pedestrian tram rail_urban rail rail_electric rail_fast ship" speed="13.89" length="9.34" shape="370.07,202.56,55.31 371.52,203.01,55.31 374.38,205.37,55.32 376.41,208.95,55.32"/>
    </edge>
    <edge id=":8803_0" function="internal">
        <lane id=":8803_0_0" index="0" disallow="pedestrian tram rail_urban rail rail_electric rail_fast ship" speed="16.95" length="13.66" shape="356.06,366.08,67.49 354.15,362.62,67.57 352.93,360.17,67.62 351.48,357.89,67.67 348.94,354.90,67.74"/>
        <lane id=":8803_0_1" index="1" disallow="pedestrian tram rail_urban rail rail_electric rail_fast ship" speed="16.95" length="13.66" shape="358.81,364.44,67.49 356.80,360.80,67.56 355.49,358.25,67.62 353.96,355.86,67.66 351.28,352.72,67.74"/>
    </edge>
    <edge id=":8803_2" function="internal">
        <lane id=":8803_2_0" index="0" disallow="pedestrian tram rail_urban rail rail_electric rail_fast ship" speed="16.95" length="14.09" shape="355.96,348.35,67.73 366.09,357.97,67.60"/>
        <lane id=":8803_2_1" index="1" disallow="pedestrian tram rail_urban rail rail_electric rail_fast ship" speed="16.95" length="14.09" shape="353.62,350.53,67.74 363.91,360.31,67.60"/>
    </edge>
    <edge id=":8805_0" function="internal">
        <lane id=":8805_0_0" index="0" allow="pedestrian bicycle" speed="2.78" length="5.04" width="2.00" shape="502.94,407.93,53.20 507.42,410.24,53.20"/>
    </edge>
    <edge id=":8805_1" function="internal">
        <lane id=":8805_1_0" index="0" allow="pedestrian bicycle" speed="2.78" length="4.32" width="2.00" shape="502.94,407.93,53.20 503.79,408.56,53.22 504.29,409.39,53.23 504.46,410.42,53.25 504.29,411.66,53.27"/>
    </edge>
    <edge id=":8810_0" function="internal">
        <lane id=":8810_0_0" index="0" disallow="pedestrian tram rail_urban rail rail_electric rail_fast ship" speed="13.89" length="5.41" shape="314.19,662.60,101.10 309.86,659.36,101.06"/>
    </edge>
    <edge id=":8810_1" function="internal">
        <lane id=":8810_1_0" index="0" disallow="pedestrian tram rail_urban rail rail_electric rail_fast ship" speed="13.89" length="5.36" shape="311.77,656.80,101.06 316.06,660.00,101.10"/>
    </edge>
    <edge id=":8821_0" function="internal">
        <lane id=":8821_0_0" index="0" disallow="pedestrian tram rail_urban rail rail_electric rail_fast ship" speed="18.05" length="0.10" shape="200.91,66.45,23.20 200.84,66.44,23.20"/>
    </edge>
    <edge id=":8821_1" function="internal">
        <lane id=":8821_1_0" index="0" disallow="pedestrian tram rail_urban rail rail_electric rail_fast ship" speed="18.05" length="0.10" shape="201.22,63.26,23.20 201.15,63.25,23.20"/>
    </edge>
    <edge id=":8828_0" function="internal">
        <lane id=":8828_0_0" index="0" disallow="pedestrian tram rail_urban rail rail_electric rail_fast ship" speed="13.89" length="4.67" shape="600.76,875.74,99.40 600.66,877.18,99.40 600.16,877.92,99.40 599.27,877.97,99.40 597.98,877.32,99.40"/>
    </edge>
    <edge id=":8830_0" function="internal">
        <lane id=":8830_0_0" index="0" disallow="pedestrian tram rail_urban rail rail_electric rail_fast ship" speed="13.89" length="4.73" shape="653.11,790.96,76.81 651.98,790.11,76.84 651.20,789.48,76.86 650.36,789.04,76.87 649.01,788.81,76.90"/>
    </edge>
    <edge id=":8852_0" function="internal">
        <lane id=":8852_0_0" index="0" disallow="pedestrian tram rail_urban rail rail_electric rail_fast ship" speed="13.89" length="5.08" shape="584.29,692.57,66.73 580.00,689.84,66.59"/>
    </edge>
    <edge id=":8852_1" function="internal">
        <lane id=":8852_1_0" index="0" disallow="pedestrian tram rail_urban rail rail_electric rail_fast ship" speed="13.89" length="5.11" shape="581.71,687.13,66.59 586.01,689.88,66.73"/>
    </edge>
    <edge id=":8859_0" function="internal">
        <lane id=":8859_0_0" index="0" disallow="pedestrian tram rail_urban rail rail_electric rail_fast ship" speed="20.00" length="6.46" shape="705.71,750.07,64.20 702.92,744.26,64.20"/>
        <lane id=":8859_0_1" index="1" disallow="pedestrian tram rail_urban rail rail_electric rail_fast ship" speed="20.00" length="6.46" shape="708.61,748.69,64.20 705.80,742.85,64.20"/>
    </edge>
    <edge id=":8859_2" function="internal">
        <lane id=":8859_2_0" index="0" disallow="pedestrian tram rail_urban rail rail_electric rail_fast ship" speed="20.00" length="6.54" shape="711.54,740.03,64.20 714.39,745.95,64.20"/>
        <lane id=":8859_2_1" index="1" disallow="pedestrian tram rail_urban rail rail_electric rail_fast ship" speed="20.00" length="6.54" shape="708.67,741.44,64.20 711.50,747.32,64.20"/>
    </edge>
    <edge id=":8876_0" function="internal">
        <lane id=":8876_0_0" index="0" allow="bicycle" speed="8.34" length="6.70" shape="673.84,373.60,34.30 672.82,371.42,34.30 671.80,369.86,34.30 670.79,368.93,34.30 669.79,368.61,34.30"/>
    </edge>
    <edge id=":8876_1" function="internal">
        <lane id=":8876_1_0" index="0" allow="pedestrian bicycle" speed="2.78" length="13.21" width="2.00" shape="673.84,373.60,34.30 672.69,370.31,34.30 672.13,367.22,34.30 672.16,364.10,34.30 672.80,360.69,34.30"/>
    </edge>
    <edge id=":8876_2" function="internal">
        <lane id=":8876_2_0" index="0" allow="bicycle" speed="8.34" length="10.32" shape="673.84,373.60,34.30 672.70,370.02,34.30 672.67,367.49,34.30 673.74,366.02,34.30 675.91,365.59,34.30"/>
    </edge>
    <edge id=":8876_3" function="internal">
        <lane id=":8876_3_0" index="0" disallow="pedestrian tram rail_urban rail rail_electric rail_fast ship" speed="13.89" length="6.02" shape="675.80,368.78,34.30 669.79,368.61,34.30"/>
    </edge>
    <edge id=":8876_4" function="internal">
        <lane id=":8876_4_0" index="0" allow="bicycle" speed="8.34" length="3.58" width="2.00" shape="675.80,368.78,34.30 673.70,368.21,34.30 672.84,367.10,34.30"/>
    </edge>
    <edge id=":8876_7" function="internal">
        <lane id=":8876_7_0" index="0" allow="bicycle" speed="8.34" length="6.59" width="2.00" shape="672.84,367.10,34.30 672.51,366.67,34.30 672.21,364.16,34.30 672.80,360.69,34.30"/>
    </edge>
    <edge id=":8876_5" function="internal">
        <lane id=":8876_5_0" index="0" allow="bicycle" speed="8.34" length="5.88" width="2.00" shape="669.81,365.41,34.30 670.65,365.12,34.30 671.43,364.24,34.30 672.15,362.76,34.30 672.80,360.69,34.30"/>
    </edge>
    <edge id=":8876_6" function="internal">
        <lane id=":8876_6_0" index="0" disallow="pedestrian tram rail_urban rail rail_electric rail_fast ship" speed="13.89" length="6.10" shape="669.81,365.41,34.30 675.91,365.59,34.30"/>
    </edge>
    <edge id=":8878_0" function="internal">
        <lane id=":8878_0_0" index="0" disallow="pedestrian tram rail_urban rail rail_electric rail_fast ship" speed="13.89" length="9.27" shape="458.24,692.95,84.70 456.39,691.37,84.70 454.41,690.76,84.70 452.30,691.13,84.70 450.05,692.46,84.70"/>
    </edge>
    <edge id=":8878_1" function="internal">
        <lane id=":8878_1_0" index="0" disallow="pedestrian tram rail_urban rail rail_electric rail_fast ship" speed="13.89" length="14.41" shape="458.24,692.95,84.70 448.82,682.05,84.70"/>
    </edge>