<routes>
    <vehicle id="0" depart="1" type="passenger" departSpeed="5">
        <route edges="-290405874#2 354587522#0 354587522#3 354587522#7 631653294#0 354587521#0"/>
    </vehicle>

    <vehicle id="1" depart="3" type="passenger" departSpeed="5">
        <route edges="-290405874#2 290405873#0"/>
    </vehicle>

    <vehicle id="2" depart="3" type="passenger" departSpeed="5">
        <route edges="-9247806#2 -354587522#2 -629278174#1"/>
    </vehicle>

    <vehicle id="3" depart="5" type="passenger" departSpeed="5">
        <route edges="-505912698#0 234013266#0 533146591"/>
    </vehicle>

    <vehicle id="4" depart="5" type="passenger" departSpeed="5">
        <route edges="290405872#0 354587522#0 354587522#3 354587522#7 631653294#0 354587521#0"/>
    </vehicle>

    <vehicle id="5" depart="6" type="passenger" departSpeed="5">
        <route edges="-290405874#2 290405873#0"/>
    </vehicle>

    <vehicle id="6" depart="7" type="passenger" departSpeed="5">
        <route edges="-505912698#0 234013266#0 533146591"/>
    </vehicle>

    <vehicle id="7" depart="8" type="passenger" departSpeed="5">
        <route edges="-290405874#2 290405873#0"/>
    </vehicle>

    <vehicle id="8" depart="8" type="passenger" departSpeed="5">
        <route edges="-505912698#0 234013266#0 533146591"/>
    </vehicle>

    <vehicle id="9" depart="8" type="passenger" departSpeed="5">
        <route edges="-533146591 -234013266#1 -631653295#2"/>
    </vehicle>

    <vehicle id="10" depart="8" type="passenger" departSpeed="5">
        <route edges="-533146591 -234013266#1 -631653295#2"/>
    </vehicle>

    <vehicle id="11" depart="8" type="passenger" departSpeed="5">
        <route edges="-533146591 -234013266#1 354587521#0"/>
    </vehicle>

    <vehicle id="12" depart="9" type="passenger" departSpeed="5">
        <route edges="-290405874#2 -629278174#1"/>
    </vehicle>

    <vehicle id="13" depart="9" type="passenger" departSpeed="5">
        <route edges="-9247806#2 -354587522#2 290405873#0"/>
    </vehicle>

    <vehicle id="14" depart="10" type="passenger" departSpeed="5">
        <route edges="-290405874#2 290405873#0"/>
    </vehicle>

    <vehicle id="15" depart="10" type="passenger" departSpeed="5">
        <route edges="-505912698#0 234013266#0 533146591"/>
    </vehicle>

    <vehicle id="16" depart="10" type="passenger" departSpeed="5">
        <route edges="-505912698#0 234013266#0 533146591"/>
    </vehicle>

    <vehicle id="17" depart="10" type="passenger" departSpeed="5">
        <route edges="-533146591 -234013266#1 -631653295#2"/>
    </vehicle>

    <vehicle id="18" depart="11" type="passenger" departSpeed="5">
        <route edges="-533146591 -234013266#1 -631653295#2"/>
    </vehicle>

    <vehicle id="19" depart="11" type="passenger" departSpeed="5">
        <route edges="290405872#0 354587522#0 354587522#3 354587522#7 -9246225#5"/>
    </vehicle>

    <vehicle id="20" depart="12" type="passenger" departSpeed="5">
        <route edges="-290405874#2 290405873#0"/>
    </vehicle>

    <vehicle id="21" depart="12" type="passenger" departSpeed="5">
        <route edges="-505912698#0 -631653294#2 -354587522#9 -354587522#6 -354587522#2 -629278174#1"/>
    </vehicle>

    <vehicle id="22" depart="12" type="passenger" departSpeed="5">
        <route edges="354587523 290405874#0"/>
    </vehicle>

    <vehicle id="23" depart="12" type="passenger" departSpeed="5">
        <route edges="9246225#4 198659569#0"/>
    </vehicle>

    <vehicle id="24" depart="13" type="passenger" departSpeed="5">
        <route edges="-290405874#2 290405873#0"/>
    </vehicle>

    <vehicle id="25" depart="13" type="passenger" departSpeed="5">
        <route edges="-505912698#0 234013266#0 533146591"/>
    </vehicle>

    <vehicle id="26" depart="13" type="passenger" departSpeed="5">
        <route edges="-505912698#0 234013266#0 533146591"/>
    </vehicle>

    <vehicle id="27" depart="13" type="passenger" departSpeed="5">
        <route edges="-533146591 -234013266#1 354587521#0"/>
    </vehicle>

    <vehicle id="28" depart="13" type="passenger" departSpeed="5">
        <route edges="-533146591 -234013266#1 -631653295#2"/>
    </vehicle>

    <vehicle id="29" depart="13" type="passenger" departSpeed="5">
        <route edges="-533146591 -234013266#1 -631653295#2"/>
    </vehicle>

    <vehicle id="30" depart="13" type="passenger" departSpeed="5">
        <route edges="-9247806#2 -354587522#2 290405873#0"/>
    </vehicle>

    <vehicle id="31" depart="13" type="passenger" departSpeed="5">
        <route edges="290405872#0 -629278174#1"/>
    </vehicle>

    <vehicle id="32" depart="13" type="passenger" departSpeed="5">
        <route edges="9258925#0 611582485#0"/>
    </vehicle>

    <vehicle id="33" depart="13" type="passenger" departSpeed="5">
        <route edges="9258925#0 611582485#0"/>
    </vehicle>

    <vehicle id="34" depart="14" type="passenger" departSpeed="5">
        <route edges="-290405874#2 -629278174#1"/>
    </vehicle>

    <vehicle id="35" depart="14" type="passenger" departSpeed="5">
        <route edges="-505912698#0 -631653294#2 198659569#0"/>
    </vehicle>

    <vehicle id="36" depart="14" type="passenger" departSpeed="5">
        <route edges="290405872#0 290405874#0"/>
    </vehicle>

    <vehicle id="37" depart="15" type="passenger" departSpeed="5">
        <route edges="-290405874#2 290405873#0"/>
    </vehicle>

    <vehicle id="38" depart="15" type="passenger" departSpeed="5">
        <route edges="-533146591 -234013266#1 -631653295#2"/>
    </vehicle>

    <vehicle id="39" depart="15" type="passenger" departSpeed="5">
        <route edges="-533146591 -234013266#1 -631653295#2"/>
    </vehicle>

    <vehicle id="40" depart="16" type="passenger" departSpeed="5">
        <route edges="-354587521#1 -631653294#2 -354587522#9 -354587522#6 -354587522#2 -629278174#1"/>
    </vehicle>

    <vehicle id="41" depart="16" type="passenger" departSpeed="5">
        <route edges="290405872#0 290405874#0"/>
    </vehicle>

    <vehicle id="42" depart="17" type="passenger" departSpeed="5">
        <route edges="-290405874#2 -629278174#1"/>
    </vehicle>

    <vehicle id="43" depart="17" type="passenger" departSpeed="5">
        <route edges="-533146591 -234013266#1 -631653295#2"/>
    </vehicle>

    <vehicle id="44" depart="18" type="passenger" departSpeed="5">
        <route edges="-354587521#1 -631653294#2 -354587522#9 -354587522#6 -354587522#2 -629278174#1"/>
    </vehicle>

    <vehicle id="45" depart="18" type="passenger" departSpeed="5">
        <route edges="-505912698#0 234013266#0 533146591"/>
    </vehicle>

    <vehicle id="46" depart="18" type="passenger" departSpeed="5">
        <route edges="290405872#0 290405874#0"/>
    </vehicle>

    <vehicle id="47" depart="19" type="passenger" departSpeed="5">
        <route edges="-533146591 -234013266#1 -631653295#2"/>
    </vehicle>

    <vehicle id="48" depart="19" type="passenger" departSpeed="5">
        <route edges="290405872#0 290405874#0"/>
    </vehicle>

    <vehicle id="49" depart="19" type="passenger" departSpeed="5">
        <route edges="9246225#4 631653294#0 -631653295#2"/>
    </vehicle>

    <vehicle id="50" depart="19" type="passenger" departSpeed="5">
        <route edges="9258925#0 354587522#7 631653294#0 -631653295#2"/>
    </vehicle>

    <vehicle id="51" depart="20" type="passenger" departSpeed="5">
        <route edges="290405872#0 -629278174#1"/>
    </vehicle>

    <vehicle id="52" depart="20" type="passenger" departSpeed="5">
        <route edges="290405872#0 290405874#0"/>
    </vehicle>

    <vehicle id="53" depart="20" type="passenger" departSpeed="5">
        <route edges="290405872#0 290405874#0"/>
    </vehicle>

    <vehicle id="54" depart="21" type="passenger" departSpeed="5">
        <route edges="-354587521#1 -631653295#2"/>
    </vehicle>

    <vehicle id="55" depart="21" type="passenger" departSpeed="5">
        <route edges="-533146591 -234013266#1 -631653295#2"/>
    </vehicle>

    <vehicle id="56" depart="21" type="passenger" departSpeed="5">
        <route edges="-533146591 -234013266#1 -631653295#2"/>
    </vehicle>

    <vehicle id="57" depart="21" type="passenger" departSpeed="5">
        <route edges="9246225#4 631653294#0 234013266#0 533146591"/>
    </vehicle>

    <vehicle id="58" depart="22" type="passenger" departSpeed="5">
        <route edges="-533146591 -234013266#1 -631653295#2"/>
    </vehicle>

    <vehicle id="59" depart="23" type="passenger" departSpeed="5">
        <route edges="-354587521#1 -631653294#2 -354587522#9 -354587522#6 -354587522#2 -629278174#1"/>
    </vehicle>

    <vehicle id="60" depart="23" type="passenger" departSpeed="5">
        <route edges="-354587521#1 -631653294#2 -354587522#9 -354587522#6 -354587522#2 -629278174#1"/>
    </vehicle>

    <vehicle id="61" depart="23" type="passenger" departSpeed="5">
        <route edges="-354587521#1 -631653294#2 -354587522#9 -354587522#6 9247806#0"/>
    </vehicle>

    <vehicle id="62" depart="23" type="passenger" departSpeed="5">
        <route edges="-354587521#1 -631653294#2 -354587522#9 -354587522#6 -354587522#2 -629278174#1"/>
    </vehicle>

    <vehicle id="63" depart="23" type="passenger" departSpeed="5">
        <route edges="-354587521#1 -631653294#2 -9246225#5"/>
    </vehicle>

    <vehicle id="64" depart="23" type="passenger" departSpeed="5">
        <route edges="-354587521#1 -631653294#2 -9246225#5"/>
    </vehicle>

    <vehicle id="65" depart="24" type="passenger" departSpeed="5">
        <route edges="290405872#0 -629278174#1"/>
    </vehicle>

    <vehicle id="66" depart="26" type="passenger" departSpeed="5">
        <route edges="-354587521#1 -631653295#2"/>
    </vehicle>

    <vehicle id="67" depart="26" type="passenger" departSpeed="5">
        <route edges="-533146591 -234013266#1 -631653295#2"/>
    </vehicle>

    <vehicle id="68" depart="26" type="passenger" departSpeed="5">
        <route edges="354587523 290405874#0"/>
    </vehicle>

    <vehicle id="69" depart="26" type="passenger" departSpeed="5">
        <route edges="9246225#4 631653294#0 -631653295#2"/>
    </vehicle>

    <vehicle id="70" depart="26" type="passenger" departSpeed="5">
        <route edges="9246225#4 631653294#0 234013266#0 533146591"/>
    </vehicle>

    <vehicle id="71" depart="27" type="passenger" departSpeed="5">
        <route edges="290405872#0 290405874#0"/>
    </vehicle>

    <vehicle id="72" depart="27" type="passenger" departSpeed="5">
        <route edges="290405872#0 -629278174#1"/>
    </vehicle>

    <vehicle id="73" depart="27" type="passenger" departSpeed="5">
        <route edges="354587523 354587522#0 354587522#3 354587522#7 631653294#0 354587521#0"/>
    </vehicle>

    <vehicle id="74" depart="27" type="passenger" departSpeed="5">
        <route edges="9246225#4 631653294#0 -631653295#2"/>
    </vehicle>

    <vehicle id="75" depart="28" type="passenger" departSpeed="5">
        <route edges="290405872#0 -629278174#1"/>
    </vehicle>

    <vehicle id="76" depart="29" type="passenger" departSpeed="5">
        <route edges="290405872#0 290405874#0"/>
    </vehicle>

    <vehicle id="77" depart="29" type="passenger" departSpeed="5">
        <route edges="9246225#4 631653294#0 354587521#0"/>
    </vehicle>

    <vehicle id="78" depart="30" type="passenger" departSpeed="5">
        <route edges="-533146591 -234013266#1 354587521#0"/>
    </vehicle>

    <vehicle id="79" depart="30" type="passenger" departSpeed="5">
        <route edges="354587523 290405874#0"/>
    </vehicle>

    <vehicle id="80" depart="31" type="passenger" departSpeed="5">
        <route edges="290405872#0 290405874#0"/>
    </vehicle>

    <vehicle id="81" depart="32" type="passenger" departSpeed="5">
        <route edges="-354587521#1 -631653294#2 -354587522#9 -354587522#6 -354587522#2 290405873#0"/>
    </vehicle>

    <vehicle id="82" depart="32" type="passenger" departSpeed="5">
        <route edges="-354587521#1 -631653294#2 -354587522#9 -354587522#6 -354587522#2 -629278174#1"/>
    </vehicle>

    <vehicle id="83" depart="32" type="passenger" departSpeed="5">
        <route edges="-533146591 -234013266#1 354587521#0"/>
    </vehicle>

    <vehicle id="84" depart="32" type="passenger" departSpeed="5">
        <route edges="-533146591 -234013266#1 -631653295#2"/>
    </vehicle>

    <vehicle id="85" depart="32" type="passenger" departSpeed="5">
        <route edges="354587523 290405874#0"/>
    </vehicle>

    <vehicle id="86" depart="33" type="passenger" departSpeed="5">
        <route edges="-354587521#1 234013266#0 533146591"/>
    </vehicle>

    <vehicle id="87" depart="33" type="passenger" departSpeed="5">
        <route edges="-505912698#0 234013266#0 533146591"/>
    </vehicle>

    <vehicle id="88" depart="33" type="passenger" departSpeed="5">
        <route edges="9246225#4 631653294#0 -631653295#2"/>
    </vehicle>

    <vehicle id="89" depart="34" type="passenger" departSpeed="5">
        <route edges="354587523 290405873#0"/>
    </vehicle>

    <vehicle id="90" depart="35" type="passenger" departSpeed="5">
        <route edges="354587523 290405874#0"/>
    </vehicle>

    <vehicle id="91" depart="36" type="passenger" departSpeed="5">
        <route edges="-290405874#2 -629278174#1"/>
    </vehicle>

    <vehicle id="92" depart="36" type="passenger" departSpeed="5">
        <route edges="-533146591 -234013266#1 -631653295#2"/>
    </vehicle>

    <vehicle id="93" depart="38" type="passenger" departSpeed="5">
        <route edges="354587523 290405874#0"/>
    </vehicle>

    <vehicle id="94" depart="41" type="passenger" departSpeed="5">
        <route edges="-354587521#1 -631653294#2 -354587522#9 -354587522#6 -354587522#2 -629278174#1"/>
    </vehicle>

    <vehicle id="95" depart="42" type="passenger" departSpeed="5">
        <route edges="-290405874#2 290405873#0"/>
    </vehicle>

    <vehicle id="96" depart="42" type="passenger" departSpeed="5">
        <route edges="-354587521#1 -631653294#2 -354587522#9 -354587522#6 -354587522#2 -629278174#1"/>
    </vehicle>

    <vehicle id="97" depart="42" type="passenger" departSpeed="5">
        <route edges="290405872#0 290405874#0"/>
    </vehicle>

    <vehicle id="98" depart="42" type="passenger" departSpeed="5">
        <route edges="354587523 354587522#0 354587522#3 354587522#7 631653294#0 354587521#0"/>
    </vehicle>

    <vehicle id="99" depart="44" type="passenger" departSpeed="5">
        <route edges="-290405874#2 290405873#0"/>
    </vehicle>

    <vehicle id="100" depart="44" type="passenger" departSpeed="5">
        <route edges="-290405874#2 -629278174#1"/>
    </vehicle>

    <vehicle id="101" depart="45" type="passenger" departSpeed="5">
        <route edges="-290405874#2 290405873#0"/>
    </vehicle>

    <vehicle id="102" depart="46" type="passenger" departSpeed="5">
        <route edges="-354587521#1 -631653294#2 -354587522#9 -354587522#6 -354587522#2 -629278174#1"/>
    </vehicle>

    <vehicle id="103" depart="46" type="passenger" departSpeed="5">
        <route edges="354587523 290405874#0"/>
    </vehicle>

    <vehicle id="104" depart="47" type="passenger" departSpeed="5">
        <route edges="-290405874#2 290405873#0"/>
    </vehicle>

    <vehicle id="105" depart="47" type="passenger" departSpeed="5">
        <route edges="-354587521#1 -631653294#2 -354587522#9 611582485#0"/>
    </vehicle>

    <vehicle id="106" depart="48" type="passenger" departSpeed="5">
        <route edges="9246225#4 198659569#0"/>
    </vehicle>

    <vehicle id="107" depart="49" type="passenger" departSpeed="5">
        <route edges="-290405874#2 290405873#0"/>
    </vehicle>

    <vehicle id="108" depart="49" type="passenger" departSpeed="5">
        <route edges="-354587521#1 -631653294#2 -354587522#9 -9258925#3"/>
    </vehicle>

    <vehicle id="109" depart="49" type="passenger" departSpeed="5">
        <route edges="-354587521#1 234013266#0 533146591"/>
    </vehicle>

    <vehicle id="110" depart="50" type="passenger" departSpeed="5">
        <route edges="-290405874#2 -629278174#1"/>
    </vehicle>

    <vehicle id="111" depart="50" type="passenger" departSpeed="5">
        <route edges="290405872#0 290405874#0"/>
    </vehicle>

    <vehicle id="112" depart="52" type="passenger" departSpeed="5">
        <route edges="-290405874#2 290405873#0"/>
    </vehicle>

    <vehicle id="113" depart="52" type="passenger" departSpeed="5">
        <route edges="-354587521#1 -631653294#2 -354587522#9 -354587522#6 9247806#0"/>
    </vehicle>

    <vehicle id="114" depart="52" type="passenger" departSpeed="5">
        <route edges="290405872#0 354587522#0 354587522#3 354587522#7 631653294#0 354587521#0"/>
    </vehicle>

    <vehicle id="115" depart="53" type="passenger" departSpeed="5">
        <route edges="354587523 290405873#0"/>
    </vehicle>

    <vehicle id="116" depart="55" type="passenger" departSpeed="5">
        <route edges="290405872#0 -629278174#1"/>
    </vehicle>

    <vehicle id="117" depart="56" type="passenger" departSpeed="5">
        <route edges="-354587521#1 -631653294#2 -354587522#9 -354587522#6 -354587522#2 -629278174#1"/>
    </vehicle>

    <vehicle id="118" depart="56" type="passenger" departSpeed="5">
        <route edges="-533146591 -234013266#1 354587521#0"/>
    </vehicle>

    <vehicle id="119" depart="56" type="passenger" departSpeed="5">
        <route edges="-9247806#2 354587522#3 354587522#7 631653294#0 354587521#0"/>
    </vehicle>

    <vehicle id="120" depart="56" type="passenger" departSpeed="5">
        <route edges="290405872#0 290405874#0"/>
    </vehicle>

    <vehicle id="121" depart="56" type="passenger" departSpeed="5">
        <route edges="290405872#0 354587522#0 354587522#3 354587522#7 631653294#0 354587521#0"/>
    </vehicle>

    <vehicle id="122" depart="57" type="passenger" departSpeed="5">
        <route edges="354587523 354587522#0 354587522#3 354587522#7 631653294#0 354587521#0"/>
    </vehicle>

    <vehicle id="123" depart="58" type="passenger" departSpeed="5">
        <route edges="-9247806#2 -354587522#2 -629278174#1"/>
    </vehicle>

    <vehicle id="124" depart="61" type="passenger" departSpeed="5">
        <route edges="-354587521#1 -631653294#2 -354587522#9 -354587522#6 -354587522#2 -629278174#1"/>
    </vehicle>

    <vehicle id="125" depart="61" type="passenger" departSpeed="5">
        <route edges="354587523 290405874#0"/>
    </vehicle>

    <vehicle id="126" depart="62" type="passenger" departSpeed="5">
        <route edges="-354587521#1 -631653294#2 -354587522#9 -354587522#6 -354587522#2 -629278174#1"/>
    </vehicle>

    <vehicle id="127" depart="62" type="passenger" departSpeed="5">
        <route edges="354587523 354587522#0 354587522#3 354587522#7 631653294#0 354587521#0"/>
    </vehicle>

    <vehicle id="128" depart="62" type="passenger" departSpeed="5">
        <route edges="354587523 354587522#0 354587522#3 354587522#7 631653294#0 -631653295#2"/>
    </vehicle>

    <vehicle id="129" depart="62" type="passenger" departSpeed="5">
        <route edges="354587523 290405873#0"/>
    </vehicle>

    <vehicle id="130" depart="64" type="passenger" departSpeed="5">
        <route edges="-354587521#1 -631653294#2 -9246225#5"/>
    </vehicle>

    <vehicle id="131" depart="65" type="passenger" departSpeed="5">
        <route edges="354587523 290405874#0"/>
    </vehicle>

    <vehicle id="132" depart="65" type="passenger" departSpeed="5">
        <route edges="354587523 354587522#0 354587522#3 354587522#7 631653294#0 354587521#0"/>
    </vehicle>

    <vehicle id="133" depart="66" type="passenger" departSpeed="5">
        <route edges="354587523 354587522#0 354587522#3 354587522#7 631653294#0 354587521#0"/>
    </vehicle>

    <vehicle id="134" depart="68" type="passenger" departSpeed="5">
        <route edges="-354587521#1 234013266#0 533146591"/>
    </vehicle>

    <vehicle id="135" depart="68" type="passenger" departSpeed="5">
        <route edges="354587523 354587522#0 354587522#3 354587522#7 631653294#0 234013266#0 533146591"/>
    </vehicle>

    <vehicle id="136" depart="70" type="passenger" departSpeed="5">
        <route edges="-354587521#1 -631653294#2 -354587522#9 -354587522#6 -354587522#2 -629278174#1"/>
    </vehicle>

    <vehicle id="137" depart="70" type="passenger" departSpeed="5">
        <route edges="-354587521#1 -631653295#2"/>
    </vehicle>

    <vehicle id="138" depart="70" type="passenger" departSpeed="5">
        <route edges="354587523 290405874#0"/>
    </vehicle>

    <vehicle id="139" depart="70" type="passenger" departSpeed="5">
        <route edges="354587523 290405874#0"/>
    </vehicle>

    <vehicle id="140" depart="71" type="passenger" departSpeed="5">
        <route edges="-354587521#1 -631653294#2 -354587522#9 -354587522#6 -354587522#2 -629278174#1"/>
    </vehicle>

    <vehicle id="141" depart="71" type="passenger" departSpeed="5">
        <route edges="-9247806#2 -354587522#2 -629278174#1"/>
    </vehicle>

    <vehicle id="142" depart="71" type="passenger" departSpeed="5">
        <route edges="9246225#4 631653294#0 354587521#0"/>
    </vehicle>

    <vehicle id="143" depart="71" type="passenger" departSpeed="5">
        <route edges="9258925#0 354587522#7 631653294#0 354587521#0"/>
    </vehicle>

    <vehicle id="144" depart="74" type="passenger" departSpeed="5">
        <route edges="-354587521#1 -631653294#2 -354587522#9 -354587522#6 -354587522#2 -629278174#1"/>
    </vehicle>

    <vehicle id="145" depart="74" type="passenger" departSpeed="5">
        <route edges="-533146591 -234013266#1 -631653294#2 -9246225#5"/>
    </vehicle>

    <vehicle id="146" depart="75" type="passenger" departSpeed="5">
        <route edges="354587523 354587522#0 354587522#3 354587522#7 631653294#0 354587521#0"/>
    </vehicle>

    <vehicle id="147" depart="75" type="passenger" departSpeed="5">
        <route edges="354587523 354587522#0 9247806#0"/>
    </vehicle>

    <vehicle id="148" depart="77" type="passenger" departSpeed="5">
        <route edges="-354587521#1 -631653294#2 -354587522#9 -354587522#6 -354587522#2 -629278174#1"/>
    </vehicle>

    <vehicle id="149" depart="77" type="passenger" departSpeed="5">
        <route edges="-533146591 -234013266#1 354587521#0"/>
    </vehicle>

    <vehicle id="150" depart="77" type="passenger" departSpeed="5">
        <route edges="354587523 354587522#0 354587522#3 354587522#7 631653294#0 -631653295#2"/>
    </vehicle>

    <vehicle id="151" depart="78" type="passenger" departSpeed="5">
        <route edges="290405872#0 290405874#0"/>
    </vehicle>

    <vehicle id="152" depart="79" type="passenger" departSpeed="5">
        <route edges="-533146591 -234013266#1 -631653294#2 -354587522#9 -354587522#6 -354587522#2 -629278174#1"/>
    </vehicle>

    <vehicle id="153" depart="80" type="passenger" departSpeed="5">
        <route edges="-354587521#1 -631653294#2 -354587522#9 -354587522#6 -354587522#2 -629278174#1"/>
    </vehicle>

    <vehicle id="154" depart="80" type="passenger" departSpeed="5">
        <route edges="-354587521#1 -631653294#2 -354587522#9 -354587522#6 -354587522#2 -629278174#1"/>
    </vehicle>

    <vehicle id="155" depart="81" type="passenger" departSpeed="5">
        <route edges="290405872#0 290405874#0"/>
    </vehicle>

    <vehicle id="156" depart="81" type="passenger" departSpeed="5">
        <route edges="354587523 -629278174#1"/>
    </vehicle>

    <vehicle id="157" depart="82" type="passenger" departSpeed="5">
        <route edges="354587523 354587522#0 354587522#3 354587522#7 631653294#0 354587521#0"/>
    </vehicle>

    <vehicle id="158" depart="83" type="passenger" departSpeed="5">
        <route edges="290405872#0 290405874#0"/>
    </vehicle>

    <vehicle id="159" depart="84" type="passenger" departSpeed="5">
        <route edges="-354587521#1 -631653294#2 -354587522#9 -354587522#6 -354587522#2 -629278174#1"/>
    </vehicle>

    <vehicle id="160" depart="84" type="passenger" departSpeed="5">
        <route edges="-533146591 -234013266#1 -631653295#2"/>
    </vehicle>

    <vehicle id="161" depart="85" type="passenger" departSpeed="5">
        <route edges="-533146591 -234013266#1 -631653295#2"/>
    </vehicle>

    <vehicle id="162" depart="85" type="passenger" departSpeed="5">
        <route edges="290405872#0 -629278174#1"/>
    </vehicle>

    <vehicle id="163" depart="86" type="passenger" departSpeed="5">
        <route edges="-354587521#1 -631653294#2 -354587522#9 -354587522#6 -354587522#2 290405873#0"/>
    </vehicle>

    <vehicle id="164" depart="86" type="passenger" departSpeed="5">
        <route edges="-354587521#1 -631653294#2 -354587522#9 -354587522#6 -354587522#2 -629278174#1"/>
    </vehicle>

    <vehicle id="165" depart="86" type="passenger" departSpeed="5">
        <route edges="290405872#0 290405874#0"/>
    </vehicle>

    <vehicle id="166" depart="86" type="passenger" departSpeed="5">
        <route edges="290405872#0 354587522#0 9247806#0"/>
    </vehicle>

    <vehicle id="167" depart="87" type="passenger" departSpeed="5">
        <route edges="-533146591 -234013266#1 -631653295#2"/>
    </vehicle>

    <vehicle id="168" depart="87" type="passenger" departSpeed="5">
        <route edges="290405872#0 -629278174#1"/>
    </vehicle>

    <vehicle id="169" depart="87" type="passenger" departSpeed="5">
        <route edges="354587523 290405873#0"/>
    </vehicle>

    <vehicle id="170" depart="88" type="passenger" departSpeed="5">
        <route edges="-505912698#0 234013266#0 533146591"/>
    </vehicle>

    <vehicle id="171" depart="88" type="passenger" departSpeed="5">
        <route edges="290405872#0 290405874#0"/>
    </vehicle>

    <vehicle id="172" depart="88" type="passenger" departSpeed="5">
        <route edges="354587523 354587522#0 354587522#3 354587522#7 631653294#0 354587521#0"/>
    </vehicle>

    <vehicle id="173" depart="89" type="passenger" departSpeed="5">
        <route edges="-290405874#2 290405873#0"/>
    </vehicle>

    <vehicle id="174" depart="89" type="passenger" departSpeed="5">
        <route edges="-290405874#2 -629278174#1"/>
    </vehicle>

    <vehicle id="175" depart="89" type="passenger" departSpeed="5">
        <route edges="290405872#0 -629278174#1"/>
    </vehicle>

    <vehicle id="176" depart="90" type="passenger" departSpeed="5">
        <route edges="-505912698#0 354587521#0"/>
    </vehicle>

    <vehicle id="177" depart="90" type="passenger" departSpeed="5">
        <route edges="-505912698#0 -631653294#2 -354587522#9 -354587522#6 -354587522#2 -629278174#1"/>
    </vehicle>

    <vehicle id="178" depart="90" type="passenger" departSpeed="5">
        <route edges="-533146591 -234013266#1 -631653295#2"/>
    </vehicle>

    <vehicle id="179" depart="90" type="passenger" departSpeed="5">
        <route edges="290405872#0 354587522#0 354587522#3 354587522#7 631653294#0 234013266#0 533146591"/>
    </vehicle>

    <vehicle id="180" depart="90" type="passenger" departSpeed="5">
        <route edges="354587523 354587522#0 354587522#3 354587522#7 631653294#0 354587521#0"/>
    </vehicle>

    <vehicle id="181" depart="91" type="passenger" departSpeed="5">
        <route edges="-354587521#1 -631653294#2 -354587522#9 -354587522#6 -354587522#2 -629278174#1"/>
    </vehicle>

    <vehicle id="182" depart="91" type="passenger" departSpeed="5">
        <route edges="-533146591 -234013266#1 -631653294#2 -354587522#9 -354587522#6 -354587522#2 -629278174#1"/>
    </vehicle>

    <vehicle id="183" depart="91" type="passenger" departSpeed="5">
        <route edges="290405872#0 290405874#0"/>
    </vehicle>

    <vehicle id="184" depart="91" type="passenger" departSpeed="5">
        <route edges="354587523 354587522#0 354587522#3 354587522#7 631653294#0 354587521#0"/>
    </vehicle>

    <vehicle id="185" depart="92" type="passenger" departSpeed="5">
        <route edges="-290405874#2 290405873#0"/>
    </vehicle>

    <vehicle id="186" depart="92" type="passenger" departSpeed="5">
        <route edges="-290405874#2 -629278174#1"/>
    </vehicle>

    <vehicle id="187" depart="92" type="passenger" departSpeed="5">
        <route edges="-505912698#0 234013266#0 533146591"/>
    </vehicle>

    <vehicle id="188" depart="92" type="passenger" departSpeed="5">
        <route edges="354587523 354587522#0 354587522#3 354587522#7 631653294#0 -631653295#2"/>
    </vehicle>

    <vehicle id="189" depart="93" type="passenger" departSpeed="5">
        <route edges="-290405874#2 354587522#0 354587522#3 -9258925#3"/>
    </vehicle>

    <vehicle id="190" depart="93" type="passenger" departSpeed="5">
        <route edges="-505912698#0 354587521#0"/>
    </vehicle>

    <vehicle id="191" depart="93" type="passenger" departSpeed="5">
        <route edges="290405872#0 354587522#0 354587522#3 354587522#7 631653294#0 354587521#0"/>
    </vehicle>

    <vehicle id="192" depart="93" type="passenger" departSpeed="5">
        <route edges="9246225#4 631653294#0 354587521#0"/>
    </vehicle>

    <vehicle id="193" depart="94" type="passenger" departSpeed="5">
        <route edges="-290405874#2 290405873#0"/>
    </vehicle>

    <vehicle id="194" depart="94" type="passenger" departSpeed="5">
        <route edges="-505912698#0 354587521#0"/>
    </vehicle>

    <vehicle id="195" depart="94" type="passenger" departSpeed="5">
        <route edges="-505912698#0 234013266#0 533146591"/>
    </vehicle>

    <vehicle id="196" depart="94" type="passenger" departSpeed="5">
        <route edges="354587523 354587522#0 354587522#3 354587522#7 631653294#0 234013266#0 533146591"/>
    </vehicle>

    <vehicle id="197" depart="94" type="passenger" departSpeed="5">
        <route edges="9258925#0 -354587522#6 -354587522#2 290405873#0"/>
    </vehicle>

    <vehicle id="198" depart="95" type="passenger" departSpeed="5">
        <route edges="-290405874#2 -629278174#1"/>
    </vehicle>
