<?xml version="1.0" encoding="UTF-8"?>

<!-- generated on 2021-06-15 02:13:43 by Eclipse SUMO netedit Version 1.9.1
<configuration xmlns:xsi="http://www.w3.org/2001/XMLSchema-instance" xsi:noNamespaceSchemaLocation="http://sumo.dlr.de/xsd/netconvertConfiguration.xsd">

    <input>
        <sumo-net-file value="/home/vtoan/UTC/tslib/traffic-sumo/isolated-intersection/hz-bc-tyc_1/road.net.xml"/>
    </input>

    <output>
        <output-file value="/home/vtoan/UTC/tslib/traffic-sumo/isolated-intersection/hz-bc-tyc_1/road.net.xml"/>
    </output>

    <processing>
        <geometry.min-radius.fix.railways value="false"/>
        <geometry.max-grade.fix value="false"/>
        <offset.disable-normalization value="true"/>
        <lefthand value="false"/>
    </processing>

    <junctions>
        <no-turnarounds value="true"/>
        <junctions.corner-detail value="5"/>
        <junctions.limit-turn-speed value="5.5"/>
        <rectangular-lane-cut value="false"/>
    </junctions>

    <pedestrian>
        <walkingareas value="false"/>
    </pedestrian>

    <report>
        <aggregate-warnings value="5"/>
    </report>

</configuration>
-->

<net version="1.9" junctionCornerDetail="5" limitTurnSpeed="5.50" xmlns:xsi="http://www.w3.org/2001/XMLSchema-instance" xsi:noNamespaceSchemaLocation="http://sumo.dlr.de/xsd/net_file.xsd">

    <location netOffset="0.00,0.00" convBoundary="-300.00,-300.00,300.00,300.00" origBoundary="-10000000000.00,-10000000000.00,10000000000.00,10000000000.00" projParameter="!"/>

    <edge id=":intersection_1_1_0" function="internal">
        <lane id=":intersection_1_1_0_0" index="0" speed="6.43" length="8.87" width="3.00" shape="-4.50,10.00 -4.84,7.59 -5.88,5.88 -7.59,4.84 -10.00,4.50"/>
    </edge>
    <edge id=":intersection_1_1_1" function="internal">
        <lane id=":intersection_1_1_1_0" index="0" speed="11.11" length="20.00" width="3.00" shape="-4.50,10.00 -4.50,-10.00"/>
        <lane id=":intersection_1_1_1_1" index="1" speed="11.11" length="20.00" width="3.00" shape="-1.50,10.00 -1.50,-10.00"/>
    </edge>
    <edge id=":intersection_1_1_3" function="internal">
        <lane id=":intersection_1_1_3_0" index="0" speed="9.06" length="6.60" width="3.00" shape="-1.50,10.00 -0.78,4.97 -0.00,3.67"/>
    </edge>
    <edge id=":intersection_1_1_16" function="internal">
        <lane id=":intersection_1_1_16_0" index="0" speed="9.06" length="11.95" width="3.00" shape="-0.00,3.67 1.38,1.38 4.97,-0.78 10.00,-1.50"/>
    </edge>
    <edge id=":intersection_1_1_4" function="internal">
        <lane id=":intersection_1_1_4_0" index="0" speed="6.43" length="8.87" width="3.00" shape="10.00,4.50 7.59,4.84 5.88,5.88 4.84,7.59 4.50,10.00"/>
    </edge>
    <edge id=":intersection_1_1_5" function="internal">
        <lane id=":intersection_1_1_5_0" index="0" speed="11.11" length="20.00" width="3.00" shape="10.00,4.50 -10.00,4.50"/>
        <lane id=":intersection_1_1_5_1" index="1" speed="11.11" length="20.00" width="3.00" shape="10.00,1.50 -10.00,1.50"/>
    </edge>
    <edge id=":intersection_1_1_7" function="internal">
        <lane id=":intersection_1_1_7_0" index="0" speed="9.06" length="6.60" width="3.00" shape="10.00,1.50 4.97,0.78 3.67,0.00"/>
    </edge>
    <edge id=":intersection_1_1_17" function="internal">
        <lane id=":intersection_1_1_17_0" index="0" speed="9.06" length="11.95" width="3.00" shape="3.67,0.00 1.38,-1.38 -0.78,-4.97 -1.50,-10.00"/>
    </edge>
    <edge id=":intersection_1_1_8" function="internal">
        <lane id=":intersection_1_1_8_0" index="0" speed="6.43" length="8.87" width="3.00" shape="4.50,-10.00 4.84,-7.59 5.88,-5.88 7.59,-4.84 10.00,-4.50"/>
    </edge>
    <edge id=":intersection_1_1_9" function="internal">
        <lane id=":intersection_1_1_9_0" index="0" speed="11.11" length="20.00" width="3.00" shape="4.50,-10.00 4.50,10.00"/>
        <lane id=":intersection_1_1_9_1" index="1" speed="11.11" length="20.00" width="3.00" shape="1.50,-10.00 1.50,10.00"/>
    </edge>
    <edge id=":intersection_1_1_11" function="internal">
        <lane id=":intersection_1_1_11_0" index="0" speed="9.06" length="6.60" width="3.00" shape="1.50,-10.00 0.78,-4.97 0.00,-3.67"/>
    </edge>
    <edge id=":intersection_1_1_18" function="internal">
        <lane id=":intersection_1_1_18_0" index="0" speed="9.06" length="11.95" width="3.00" shape="0.00,-3.67 -1.38,-1.38 -4.97,0.78 -10.00,1.50"/>
    </edge>
    <edge id=":intersection_1_1_12" function="internal">
        <lane id=":intersection_1_1_12_0" index="0" speed="6.43" length="8.87" width="3.00" shape="-10.00,-4.50 -7.59,-4.84 -5.88,-5.88 -4.84,-7.59 -4.50,-10.00"/>
    </edge>
    <edge id=":intersection_1_1_13" function="internal">
        <lane id=":intersection_1_1_13_0" index="0" speed="11.11" length="20.00" width="3.00" shape="-10.00,-4.50 10.00,-4.50"/>
        <lane id=":intersection_1_1_13_1" index="1" speed="11.11" length="20.00" width="3.00" shape="-10.00,-1.50 10.00,-1.50"/>
    </edge>
    <edge id=":intersection_1_1_15" function="internal">
        <lane id=":intersection_1_1_15_0" index="0" speed="9.06" length="6.60" width="3.00" shape="-10.00,-1.50 -4.97,-0.78 -3.67,-0.00"/>
    </edge>
    <edge id=":intersection_1_1_19" function="internal">
        <lane id=":intersection_1_1_19_0" index="0" speed="9.06" length="11.95" width="3.00" shape="-3.67,-0.00 -1.38,1.38 0.78,4.97 1.50,10.00"/>
    </edge>

    <edge id="road_0_1_0" from="intersection_0_1" to="intersection_1_1" priority="-1">
        <lane id="road_0_1_0_0" index="0" speed="11.11" length="290.00" width="3.00" shape="-300.00,-4.50 -10.00,-4.50"/>
        <lane id="road_0_1_0_1" index="1" speed="11.11" length="290.00" width="3.00" shape="-300.00,-1.50 -10.00,-1.50"/>
    </edge>
    <edge id="road_1_0_1" from="intersection_1_0" to="intersection_1_1" priority="-1">
        <lane id="road_1_0_1_0" index="0" speed="11.11" length="290.00" width="3.00" shape="4.50,-300.00 4.50,-10.00"/>
        <lane id="road_1_0_1_1" index="1" speed="11.11" length="290.00" width="3.00" shape="1.50,-300.00 1.50,-10.00"/>
    </edge>
    <edge id="road_1_1_0" from="intersection_1_1" to="intersection_2_1" priority="-1">
        <lane id="road_1_1_0_0" index="0" speed="11.11" length="290.00" width="3.00" shape="10.00,-4.50 300.00,-4.50"/>
        <lane id="road_1_1_0_1" index="1" speed="11.11" length="290.00" width="3.00" shape="10.00,-1.50 300.00,-1.50"/>
    </edge>
    <edge id="road_1_1_1" from="intersection_1_1" to="intersection_1_2" priority="-1">
        <lane id="road_1_1_1_0" index="0" speed="11.11" length="290.00" width="3.00" shape="4.50,10.00 4.50,300.00"/>
        <lane id="road_1_1_1_1" index="1" speed="11.11" length="290.00" width="3.00" shape="1.50,10.00 1.50,300.00"/>
    </edge>
    <edge id="road_1_1_2" from="intersection_1_1" to="intersection_0_1" priority="-1">
        <lane id="road_1_1_2_0" index="0" speed="11.11" length="290.00" width="3.00" shape="-10.00,4.50 -300.00,4.50"/>
        <lane id="road_1_1_2_1" index="1" speed="11.11" length="290.00" width="3.00" shape="-10.00,1.50 -300.00,1.50"/>
    </edge>
    <edge id="road_1_1_3" from="intersection_1_1" to="intersection_1_0" priority="-1">
        <lane id="road_1_1_3_0" index="0" speed="11.11" length="290.00" width="3.00" shape="-4.50,-10.00 -4.50,-300.00"/>
        <lane id="road_1_1_3_1" index="1" speed="11.11" length="290.00" width="3.00" shape="-1.50,-10.00 -1.50,-300.00"/>
    </edge>
    <edge id="road_1_2_3" from="intersection_1_2" to="intersection_1_1" priority="-1">
        <lane id="road_1_2_3_0" index="0" speed="11.11" length="290.00" width="3.00" shape="-4.50,300.00 -4.50,10.00"/>
        <lane id="road_1_2_3_1" index="1" speed="11.11" length="290.00" width="3.00" shape="-1.50,300.00 -1.50,10.00"/>
    </edge>
    <edge id="road_2_1_2" from="intersection_2_1" to="intersection_1_1" priority="-1">
        <lane id="road_2_1_2_0" index="0" speed="11.11" length="290.00" width="3.00" shape="300.00,4.50 10.00,4.50"/>
        <lane id="road_2_1_2_1" index="1" speed="11.11" length="290.00" width="3.00" shape="300.00,1.50 10.00,1.50"/>
    </edge>

    <tlLogic id="intersection_1_1" type="static" programID="0" offset="0">
        <phase duration="42" state="GGGgrrrrGGGgrrrr"/>
        <phase duration="3"  state="yyyyrrrryyyyrrrr"/>
        <phase duration="42" state="rrrrGGGgrrrrGGGg"/>
        <phase duration="3"  state="rrrryyyyrrrryyyy"/>
    </tlLogic>

    <junction id="intersection_0_1" type="dead_end" x="-300.00" y="0.00" incLanes="road_1_1_2_0 road_1_1_2_1" intLanes="" shape="-300.00,0.00 -300.00,6.00 -300.00,0.00"/>
    <junction id="intersection_1_0" type="dead_end" x="0.00" y="-300.00" incLanes="road_1_1_3_0 road_1_1_3_1" intLanes="" shape="0.00,-300.00 -6.00,-300.00 0.00,-300.00"/>
    <junction id="intersection_1_1" type="traffic_light" x="0.00" y="0.00" incLanes="road_1_2_3_0 road_1_2_3_1 road_2_1_2_0 road_2_1_2_1 road_1_0_1_0 road_1_0_1_1 road_0_1_0_0 road_0_1_0_1" intLanes=":intersection_1_1_0_0 :intersection_1_1_1_0 :intersection_1_1_1_1 :intersection_1_1_16_0 :intersection_1_1_4_0 :intersection_1_1_5_0 :intersection_1_1_5_1 :intersection_1_1_17_0 :intersection_1_1_8_0 :intersection_1_1_9_0 :intersection_1_1_9_1 :intersection_1_1_18_0 :intersection_1_1_12_0 :intersection_1_1_13_0 :intersection_1_1_13_1 :intersection_1_1_19_0" shape="-6.00,10.00 6.00,10.00 6.44,7.78 7.00,7.00 7.78,6.44 8.78,6.11 10.00,6.00 10.00,-6.00 7.78,-6.44 7.00,-7.00 6.44,-7.78 6.11,-8.78 6.00,-10.00 -6.00,-10.00 -6.44,-7.78 -7.00,-7.00 -7.78,-6.44 -8.78,-6.11 -10.00,-6.00 -10.00,6.00 -7.78,6.44 -7.00,7.00 -6.44,7.78 -6.11,8.78">
        <request index="0"  response="0000000000000000" foes="0000000001100000" cont="0"/>
        <request index="1"  response="1000000010000000" foes="1111100011100000" cont="0"/>
        <request index="2"  response="1000000010000000" foes="1111100011100000" cont="0"/>
        <request index="3"  response="1000011010000000" foes="1110011011100000" cont="1"/>
        <request index="4"  response="0000011000000000" foes="0000011000000000" cont="0"/>
        <request index="5"  response="0000111000001111" foes="1000111000001111" cont="0"/>
        <request index="6"  response="0000111000001111" foes="1000111000001111" cont="0"/>
        <request index="7"  response="0110111000001110" foes="0110111000001110" cont="1"/>
        <request index="8"  response="0000000000000000" foes="0110000000000000" cont="0"/>
        <request index="9"  response="1000000010000000" foes="1110000011111000" cont="0"/>
        <request index="10" response="1000000010000000" foes="1110000011111000" cont="0"/>
        <request index="11" response="1000000010000110" foes="1110000011100110" cont="1"/>
        <request index="12" response="0000000000000110" foes="0000000000000110" cont="0"/>
        <request index="13" response="0000111100001110" foes="0000111110001110" cont="0"/>
        <request index="14" response="0000111100001110" foes="0000111110001110" cont="0"/>
        <request index="15" response="0000111001101110" foes="0000111001101110" cont="1"/>
    </junction>
    <junction id="intersection_1_2" type="dead_end" x="0.00" y="300.00" incLanes="road_1_1_1_0 road_1_1_1_1" intLanes="" shape="0.00,300.00 6.00,300.00 0.00,300.00"/>
    <junction id="intersection_2_1" type="dead_end" x="300.00" y="0.00" incLanes="road_1_1_0_0 road_1_1_0_1" intLanes="" shape="300.00,0.00 300.00,-6.00 300.00,0.00"/>

    <junction id=":intersection_1_1_16_0" type="internal" x="-0.00" y="3.67" incLanes=":intersection_1_1_3_0 road_1_0_1_0 road_1_0_1_1" intLanes=":intersection_1_1_5_0 :intersection_1_1_5_1 :intersection_1_1_7_0 :intersection_1_1_8_0 :intersection_1_1_9_0 :intersection_1_1_9_1 :intersection_1_1_13_0 :intersection_1_1_13_1 :intersection_1_1_15_0"/>
    <junction id=":intersection_1_1_17_0" type="internal" x="3.67" y="0.00" incLanes=":intersection_1_1_7_0 road_0_1_0_0 road_0_1_0_1" intLanes=":intersection_1_1_1_0 :intersection_1_1_1_1 :intersection_1_1_3_0 :intersection_1_1_9_0 :intersection_1_1_9_1 :intersection_1_1_11_0 :intersection_1_1_12_0 :intersection_1_1_13_0 :intersection_1_1_13_1"/>
    <junction id=":intersection_1_1_18_0" type="internal" x="0.00" y="-3.67" incLanes=":intersection_1_1_11_0 road_1_2_3_0 road_1_2_3_1" intLanes=":intersection_1_1_0_0 :intersection_1_1_1_0 :intersection_1_1_1_1 :intersection_1_1_5_0 :intersection_1_1_5_1 :intersection_1_1_7_0 :intersection_1_1_13_0 :intersection_1_1_13_1 :intersection_1_1_15_0"/>
    <junction id=":intersection_1_1_19_0" type="internal" x="-3.67" y="-0.00" incLanes=":intersection_1_1_15_0 road_2_1_2_0 road_2_1_2_1" intLanes=":intersection_1_1_1_0 :intersection_1_1_1_1 :intersection_1_1_3_0 :intersection_1_1_4_0 :intersection_1_1_5_0 :intersection_1_1_5_1 :intersection_1_1_9_0 :intersection_1_1_9_1 :intersection_1_1_11_0"/>

    <connection from="road_0_1_0" to="road_1_1_3" fromLane="0" toLane="0" via=":intersection_1_1_12_0" tl="intersection_1_1" linkIndex="12" dir="r" state="o"/>
    <connection from="road_0_1_0" to="road_1_1_0" fromLane="0" toLane="0" via=":intersection_1_1_13_0" tl="intersection_1_1" linkIndex="13" dir="s" state="o"/>
    <connection from="road_0_1_0" to="road_1_1_0" fromLane="1" toLane="1" via=":intersection_1_1_13_1" tl="intersection_1_1" linkIndex="14" dir="s" state="o"/>
    <connection from="road_0_1_0" to="road_1_1_1" fromLane="1" toLane="1" via=":intersection_1_1_15_0" tl="intersection_1_1" linkIndex="15" dir="l" state="o"/>
    <connection from="road_1_0_1" to="road_1_1_0" fromLane="0" toLane="0" via=":intersection_1_1_8_0" tl="intersection_1_1" linkIndex="8" dir="r" state="O"/>
    <connection from="road_1_0_1" to="road_1_1_1" fromLane="0" toLane="0" via=":intersection_1_1_9_0" tl="intersection_1_1" linkIndex="9" dir="s" state="O"/>
    <connection from="road_1_0_1" to="road_1_1_1" fromLane="1" toLane="1" via=":intersection_1_1_9_1" tl="intersection_1_1" linkIndex="10" dir="s" state="O"/>
    <connection from="road_1_0_1" to="road_1_1_2" fromLane="1" toLane="1" via=":intersection_1_1_11_0" tl="intersection_1_1" linkIndex="11" dir="l" state="o"/>
    <connection from="road_1_2_3" to="road_1_1_2" fromLane="0" toLane="0" via=":intersection_1_1_0_0" tl="intersection_1_1" linkIndex="0" dir="r" state="O"/>
    <connection from="road_1_2_3" to="road_1_1_3" fromLane="0" toLane="0" via=":intersection_1_1_1_0" tl="intersection_1_1" linkIndex="1" dir="s" state="O"/>
    <connection from="road_1_2_3" to="road_1_1_3" fromLane="1" toLane="1" via=":intersection_1_1_1_1" tl="intersection_1_1" linkIndex="2" dir="s" state="O"/>
    <connection from="road_1_2_3" to="road_1_1_0" fromLane="1" toLane="1" via=":intersection_1_1_3_0" tl="intersection_1_1" linkIndex="3" dir="l" state="o"/>
    <connection from="road_2_1_2" to="road_1_1_1" fromLane="0" toLane="0" via=":intersection_1_1_4_0" tl="intersection_1_1" linkIndex="4" dir="r" state="o"/>
    <connection from="road_2_1_2" to="road_1_1_2" fromLane="0" toLane="0" via=":intersection_1_1_5_0" tl="intersection_1_1" linkIndex="5" dir="s" state="o"/>
    <connection from="road_2_1_2" to="road_1_1_2" fromLane="1" toLane="1" via=":intersection_1_1_5_1" tl="intersection_1_1" linkIndex="6" dir="s" state="o"/>
    <connection from="road_2_1_2" to="road_1_1_3" fromLane="1" toLane="1" via=":intersection_1_1_7_0" tl="intersection_1_1" linkIndex="7" dir="l" state="o"/>

    <connection from=":intersection_1_1_0" to="road_1_1_2" fromLane="0" toLane="0" dir="r" state="M"/>
    <connection from=":intersection_1_1_1" to="road_1_1_3" fromLane="0" toLane="0" dir="s" state="M"/>
    <connection from=":intersection_1_1_1" to="road_1_1_3" fromLane="1" toLane="1" dir="s" state="M"/>
    <connection from=":intersection_1_1_3" to="road_1_1_0" fromLane="0" toLane="1" via=":intersection_1_1_16_0" dir="l" state="m"/>
    <connection from=":intersection_1_1_16" to="road_1_1_0" fromLane="0" toLane="1" dir="l" state="M"/>
    <connection from=":intersection_1_1_4" to="road_1_1_1" fromLane="0" toLane="0" dir="r" state="M"/>
    <connection from=":intersection_1_1_5" to="road_1_1_2" fromLane="0" toLane="0" dir="s" state="M"/>
    <connection from=":intersection_1_1_5" to="road_1_1_2" fromLane="1" toLane="1" dir="s" state="M"/>
    <connection from=":intersection_1_1_7" to="road_1_1_3" fromLane="0" toLane="1" via=":intersection_1_1_17_0" dir="l" state="m"/>
    <connection from=":intersection_1_1_17" to="road_1_1_3" fromLane="0" toLane="1" dir="l" state="M"/>
    <connection from=":intersection_1_1_8" to="road_1_1_0" fromLane="0" toLane="0" dir="r" state="M"/>
    <connection from=":intersection_1_1_9" to="road_1_1_1" fromLane="0" toLane="0" dir="s" state="M"/>
    <connection from=":intersection_1_1_9" to="road_1_1_1" fromLane="1" toLane="1" dir="s" state="M"/>
    <connection from=":intersection_1_1_11" to="road_1_1_2" fromLane="0" toLane="1" via=":intersection_1_1_18_0" dir="l" state="m"/>
    <connection from=":intersection_1_1_18" to="road_1_1_2" fromLane="0" toLane="1" dir="l" state="M"/>
    <connection from=":intersection_1_1_12" to="road_1_1_3" fromLane="0" toLane="0" dir="r" state="M"/>
    <connection from=":intersection_1_1_13" to="road_1_1_0" fromLane="0" toLane="0" dir="s" state="M"/>
    <connection from=":intersection_1_1_13" to="road_1_1_0" fromLane="1" toLane="1" dir="s" state="M"/>
    <connection from=":intersection_1_1_15" to="road_1_1_1" fromLane="0" toLane="1" via=":intersection_1_1_19_0" dir="l" state="m"/>
    <connection from=":intersection_1_1_19" to="road_1_1_1" fromLane="0" toLane="1" dir="l" state="M"/>

</net>
