<?xml version="1.0" encoding="UTF-8"?>

<!-- generated on Sat 05 Jun 2021 09:39:50 PM +07 by Eclipse SUMO netedit Version 1.8.0
<configuration xmlns:xsi="http://www.w3.org/2001/XMLSchema-instance" xsi:noNamespaceSchemaLocation="http://sumo.dlr.de/xsd/netconvertConfiguration.xsd">

    <input>
        <sumo-net-file value="/home/vtoan/UTC/tslib/traffic-sumo/arterial_road/atlanta/road.net.xml"/>
    </input>

    <output>
        <output-file value="/home/vtoan/UTC/tslib/traffic-sumo/arterial_road/atlanta/road.net.xml"/>
    </output>

    <processing>
        <geometry.min-radius.fix.railways value="false"/>
        <geometry.max-grade.fix value="false"/>
        <offset.disable-normalization value="true"/>
        <lefthand value="false"/>
    </processing>

    <junctions>
        <no-turnarounds value="true"/>
        <junctions.corner-detail value="5"/>
        <junctions.limit-turn-speed value="5.5"/>
        <rectangular-lane-cut value="false"/>
    </junctions>

    <pedestrian>
        <walkingareas value="false"/>
    </pedestrian>

    <report>
        <aggregate-warnings value="5"/>
    </report>

</configuration>
-->

<net version="1.6" junctionCornerDetail="5" limitTurnSpeed="5.50" xmlns:xsi="http://www.w3.org/2001/XMLSchema-instance" xsi:noNamespaceSchemaLocation="http://sumo.dlr.de/xsd/net_file.xsd">

    <location netOffset="0.00,0.00" convBoundary="179.37,809.91,518.10,1709.67" origBoundary="-10000000000.00,-10000000000.00,10000000000.00,10000000000.00" projParameter="!"/>

    <edge id=":2390850312_0" function="internal">
        <lane id=":2390850312_0_0" index="0" speed="4.08" length="5.84" width="4.00" shape="390.34,1710.27 388.94,1711.40 387.83,1711.58 387.03,1710.80 386.52,1709.07"/>
    </edge>
    <edge id=":5198748651_0" function="internal">
        <lane id=":5198748651_0_0" index="0" speed="4.08" length="5.84" width="4.00" shape="515.95,1586.64 517.51,1587.54 518.08,1588.51 517.64,1589.54 516.21,1590.64"/>
    </edge>
    <edge id=":69227161_0" function="internal">
        <lane id=":69227161_0_0" index="0" speed="4.08" length="5.84" width="4.00" shape="294.80,1224.49 293.27,1223.54 292.73,1222.56 293.20,1221.54 294.66,1220.49"/>
    </edge>
    <edge id=":69227168_0" function="internal">
        <lane id=":69227168_0_0" index="0" speed="10.68" length="16.79" width="4.00" shape="369.59,1232.78 366.68,1228.13 363.69,1224.83 360.61,1222.90 357.44,1222.33"/>
    </edge>
    <edge id=":69227168_1" function="internal">
        <lane id=":69227168_1_0" index="0" speed="11.11" length="21.39" width="4.00" shape="369.59,1232.78 366.65,1227.20 364.74,1222.75 363.60,1218.08 362.96,1211.84"/>
        <lane id=":69227168_1_1" index="1" speed="11.11" length="21.39" width="4.00" shape="373.11,1230.89 370.25,1225.56 368.50,1221.67 367.52,1217.57 366.95,1211.58"/>
    </edge>
    <edge id=":69227168_3" function="internal">
        <lane id=":69227168_3_0" index="0" speed="8.92" length="7.57" width="4.00" shape="373.11,1230.89 371.21,1225.24 371.59,1223.68"/>
    </edge>
    <edge id=":69227168_4" function="internal">
        <lane id=":69227168_4_0" index="0" speed="4.08" length="2.92" width="4.00" shape="373.11,1230.89 373.29,1229.10 373.93,1228.18"/>
    </edge>
    <edge id=":69227168_18" function="internal">
        <lane id=":69227168_18_0" index="0" speed="8.92" length="15.06" width="4.00" shape="371.59,1223.68 372.27,1220.91 376.29,1217.89 383.27,1216.19"/>
    </edge>
    <edge id=":69227168_19" function="internal">
        <lane id=":69227168_19_0" index="0" speed="4.08" length="2.92" width="4.00" shape="373.93,1228.18 375.05,1228.15 376.64,1229.00"/>
    </edge>
    <edge id=":69227168_5" function="internal">
        <lane id=":69227168_5_0" index="0" speed="6.18" length="9.96" width="4.00" shape="383.76,1220.16 380.96,1220.91 379.43,1222.32 379.16,1224.39 380.16,1227.11"/>
    </edge>
    <edge id=":69227168_6" function="internal">
        <lane id=":69227168_6_0" index="0" speed="11.11" length="26.41" width="4.00" shape="383.76,1220.16 378.26,1220.73 370.61,1221.41 362.96,1222.00 357.44,1222.33"/>
    </edge>
    <edge id=":69227168_7" function="internal">
        <lane id=":69227168_7_0" index="0" speed="9.59" length="11.52" width="4.00" shape="383.76,1220.16 376.66,1220.37 372.39,1219.25"/>
    </edge>
    <edge id=":69227168_8" function="internal">
        <lane id=":69227168_8_0" index="0" speed="4.08" length="2.92" width="4.00" shape="383.76,1220.16 382.15,1219.35 381.53,1218.42"/>
    </edge>
    <edge id=":69227168_20" function="internal">
        <lane id=":69227168_20_0" index="0" speed="9.59" length="9.98" width="4.00" shape="372.39,1219.25 371.49,1219.01 368.25,1216.08 366.95,1211.58"/>
    </edge>
    <edge id=":69227168_21" function="internal">
        <lane id=":69227168_21_0" index="0" speed="4.08" length="2.92" width="4.00" shape="381.53,1218.42 381.90,1217.37 383.27,1216.19"/>
    </edge>
    <edge id=":69227168_9" function="internal">
        <lane id=":69227168_9_0" index="0" speed="7.12" length="11.24" width="4.00" shape="374.93,1211.07 375.60,1213.68 377.21,1215.40 379.77,1216.24 383.27,1216.19"/>
    </edge>
    <edge id=":69227168_10" function="internal">
        <lane id=":69227168_10_0" index="0" speed="11.11" length="17.97" width="4.00" shape="374.93,1211.07 375.42,1216.08 376.25,1219.46 377.74,1222.65 380.16,1227.11"/>
        <lane id=":69227168_10_1" index="1" speed="11.11" length="17.97" width="4.00" shape="370.94,1211.32 371.47,1216.84 372.37,1220.57 373.98,1224.09 376.64,1229.00"/>
    </edge>
    <edge id=":69227168_12" function="internal">
        <lane id=":69227168_12_0" index="0" speed="9.33" length="6.14" width="4.00" shape="370.94,1211.32 370.35,1215.95 369.49,1217.15"/>
    </edge>
    <edge id=":69227168_13" function="internal">
        <lane id=":69227168_13_0" index="0" speed="4.08" length="2.92" width="4.00" shape="370.94,1211.32 370.04,1212.88 369.07,1213.45"/>
    </edge>
    <edge id=":69227168_22" function="internal">
        <lane id=":69227168_22_0" index="0" speed="9.33" length="13.72" width="4.00" shape="369.49,1217.15 367.90,1219.33 363.60,1221.46 357.44,1222.33"/>
    </edge>
    <edge id=":69227168_23" function="internal">
        <lane id=":69227168_23_0" index="0" speed="4.08" length="2.92" width="4.00" shape="369.07,1213.45 368.04,1213.01 366.95,1211.58"/>
    </edge>
    <edge id=":69227168_14" function="internal">
        <lane id=":69227168_14_0" index="0" speed="6.79" length="9.88" width="4.00" shape="357.30,1218.33 359.93,1217.85 361.75,1216.60 362.76,1214.60 362.96,1211.84"/>
    </edge>
    <edge id=":69227168_15" function="internal">
        <lane id=":69227168_15_0" index="0" speed="11.11" length="26.05" width="4.00" shape="357.30,1218.33 362.77,1218.01 370.30,1217.43 377.82,1216.76 383.27,1216.19"/>
    </edge>
    <edge id=":69227168_16" function="internal">
        <lane id=":69227168_16_0" index="0" speed="11.11" length="8.95" width="4.00" shape="357.30,1218.33 363.52,1218.82 366.06,1219.76"/>
    </edge>
    <edge id=":69227168_17" function="internal">
        <lane id=":69227168_17_0" index="0" speed="4.08" length="2.92" width="4.00" shape="357.30,1218.33 358.84,1219.28 359.37,1220.26"/>
    </edge>
    <edge id=":69227168_24" function="internal">
        <lane id=":69227168_24_0" index="0" speed="11.11" length="14.41" width="4.00" shape="366.06,1219.76 368.82,1220.77 373.19,1224.16 376.64,1229.00"/>
    </edge>
    <edge id=":69227168_25" function="internal">
        <lane id=":69227168_25_0" index="0" speed="4.08" length="2.92" width="4.00" shape="359.37,1220.26 358.91,1221.28 357.44,1222.33"/>
    </edge>
    <edge id=":69227178_0" function="internal">
        <lane id=":69227178_0_0" index="0" speed="4.08" length="5.84" width="4.00" shape="508.24,1200.75 509.86,1201.55 510.47,1202.48 510.10,1203.54 508.74,1204.71"/>
    </edge>
    <edge id=":69249210_0" function="internal">
        <lane id=":69249210_0_0" index="0" speed="7.16" length="9.78" width="4.00" shape="452.20,1472.17 449.51,1472.54 447.49,1473.60 446.13,1475.36 445.43,1477.82"/>
    </edge>
    <edge id=":69249210_1" function="internal">
        <lane id=":69249210_1_0" index="0" speed="9.35" length="19.16" width="4.00" shape="452.20,1472.17 446.15,1471.60 441.79,1469.81 439.13,1466.79 438.15,1462.56"/>
    </edge>
    <edge id=":69249210_2" function="internal">
        <lane id=":69249210_2_0" index="0" speed="4.08" length="3.20" width="4.00" shape="452.20,1472.17 450.69,1471.18 450.19,1470.18 450.31,1469.94"/>
    </edge>
    <edge id=":69249210_11" function="internal">
        <lane id=":69249210_11_0" index="0" speed="4.08" length="2.64" width="4.00" shape="450.31,1469.94 450.68,1469.18 452.18,1468.17"/>
    </edge>
    <edge id=":69249210_3" function="internal">
        <lane id=":69249210_3_0" index="0" speed="6.80" length="9.52" width="4.00" shape="446.14,1462.34 446.58,1464.90 447.73,1466.73 449.60,1467.82 452.18,1468.17"/>
    </edge>
    <edge id=":69249210_4" function="internal">
        <lane id=":69249210_4_0" index="0" speed="11.11" length="15.22" width="4.00" shape="446.14,1462.34 446.26,1466.94 446.24,1470.10 445.99,1473.25 445.43,1477.82"/>
        <lane id=":69249210_4_1" index="1" speed="11.11" length="15.22" width="4.00" shape="442.15,1462.45 442.26,1466.87 442.24,1469.90 442.00,1472.92 441.46,1477.31"/>
    </edge>
    <edge id=":69249210_6" function="internal">
        <lane id=":69249210_6_0" index="0" speed="4.08" length="2.92" width="4.00" shape="442.15,1462.45 441.19,1463.97 440.20,1464.50"/>
    </edge>
    <edge id=":69249210_12" function="internal">
        <lane id=":69249210_12_0" index="0" speed="4.08" length="2.92" width="4.00" shape="440.20,1464.50 439.19,1464.03 438.15,1462.56"/>
    </edge>
    <edge id=":69249210_7" function="internal">
        <lane id=":69249210_7_0" index="0" speed="11.11" length="13.97" width="4.00" shape="433.53,1476.28 434.02,1472.26 434.24,1469.50 434.25,1466.72 434.15,1462.67"/>
        <lane id=":69249210_7_1" index="1" speed="11.11" length="13.97" width="4.00" shape="437.50,1476.80 438.01,1472.59 438.24,1469.70 438.26,1466.79 438.15,1462.56"/>
    </edge>
    <edge id=":69249210_9" function="internal">
        <lane id=":69249210_9_0" index="0" speed="9.64" length="5.68" width="4.00" shape="437.50,1476.80 438.83,1473.05 440.08,1471.89"/>
    </edge>
    <edge id=":69249210_10" function="internal">
        <lane id=":69249210_10_0" index="0" speed="4.08" length="2.92" width="4.00" shape="437.50,1476.80 438.68,1475.44 439.74,1475.07"/>
    </edge>
    <edge id=":69249210_13" function="internal">
        <lane id=":69249210_13_0" index="0" speed="9.64" length="13.02" width="4.00" shape="440.08,1471.89 441.72,1470.37 446.17,1468.74 452.18,1468.17"/>
    </edge>
    <edge id=":69249210_14" function="internal">
        <lane id=":69249210_14_0" index="0" speed="4.08" length="2.92" width="4.00" shape="439.74,1475.07 440.66,1475.69 441.46,1477.31"/>
    </edge>
    <edge id=":69249214_0" function="internal">
        <lane id=":69249214_0_0" index="0" speed="4.08" length="5.84" width="4.00" shape="518.09,1467.79 519.59,1468.78 520.10,1469.78 519.61,1470.78 518.11,1471.79"/>
    </edge>
    <edge id=":69387063_0" function="internal">
        <lane id=":69387063_0_0" index="0" speed="4.08" length="5.84" width="4.00" shape="319.70,1359.23 318.11,1358.38 317.51,1357.44 317.91,1356.39 319.30,1355.25"/>
    </edge>
    <edge id=":69387071_0" function="internal">
        <lane id=":69387071_0_0" index="0" speed="7.12" length="11.36" width="4.00" shape="431.16,1354.29 430.58,1351.65 429.00,1349.88 426.43,1348.98 422.87,1348.95"/>
    </edge>
    <edge id=":69387071_1" function="internal">
        <lane id=":69387071_1_0" index="0" speed="11.11" length="18.16" width="4.00" shape="431.16,1354.29 430.84,1349.24 430.06,1345.82 428.57,1342.60 426.12,1338.11"/>
        <lane id=":69387071_1_1" index="1" speed="11.11" length="18.16" width="4.00" shape="435.16,1354.18 434.81,1348.57 433.97,1344.78 432.35,1341.20 429.65,1336.22"/>
    </edge>
    <edge id=":69387071_3" function="internal">
        <lane id=":69387071_3_0" index="0" speed="9.42" length="6.18" width="4.00" shape="435.16,1354.18 435.91,1349.52 436.79,1348.36"/>
    </edge>
    <edge id=":69387071_4" function="internal">
        <lane id=":69387071_4_0" index="0" speed="4.08" length="2.92" width="4.00" shape="435.16,1354.18 436.12,1352.65 437.10,1352.12"/>
    </edge>
    <edge id=":69387071_18" function="internal">
        <lane id=":69387071_18_0" index="0" speed="9.42" length="13.73" width="4.00" shape="436.79,1348.36 438.45,1346.16 442.78,1344.08 448.90,1343.28"/>
    </edge>
    <edge id=":69387071_19" function="internal">
        <lane id=":69387071_19_0" index="0" speed="4.08" length="2.92" width="4.00" shape="437.10,1352.12 438.11,1352.59 439.16,1354.07"/>
    </edge>
    <edge id=":69387071_5" function="internal">
        <lane id=":69387071_5_0" index="0" speed="6.91" length="10.12" width="4.00" shape="448.98,1347.28 446.37,1347.75 444.52,1349.01 443.45,1351.08 443.15,1353.96"/>
    </edge>
    <edge id=":69387071_6" function="internal">
        <lane id=":69387071_6_0" index="0" speed="11.11" length="26.17" width="4.00" shape="448.98,1347.28 422.87,1348.95"/>
    </edge>
    <edge id=":69387071_7" function="internal">
        <lane id=":69387071_7_0" index="0" speed="11.11" length="8.64" width="4.00" shape="448.98,1347.28 442.81,1346.70 440.54,1345.82"/>
    </edge>
    <edge id=":69387071_8" function="internal">
        <lane id=":69387071_8_0" index="0" speed="4.08" length="2.92" width="4.00" shape="448.98,1347.28 447.46,1346.31 446.94,1345.32"/>
    </edge>
    <edge id=":69387071_20" function="internal">
        <lane id=":69387071_20_0" index="0" speed="11.11" length="14.89" width="4.00" shape="440.54,1345.82 437.53,1344.66 433.14,1341.17 429.65,1336.22"/>
    </edge>
    <edge id=":69387071_21" function="internal">
        <lane id=":69387071_21_0" index="0" speed="4.08" length="2.92" width="4.00" shape="446.94,1345.32 447.42,1344.31 448.90,1343.28"/>
    </edge>
    <edge id=":69387071_9" function="internal">
        <lane id=":69387071_9_0" index="0" speed="10.84" length="17.07" width="4.00" shape="436.70,1332.44 439.67,1337.23 442.69,1340.64 445.77,1342.66 448.90,1343.28"/>
    </edge>
    <edge id=":69387071_10" function="internal">
        <lane id=":69387071_10_0" index="0" speed="11.11" length="21.86" width="4.00" shape="436.70,1332.44 439.66,1338.11 441.60,1342.75 442.69,1347.62 443.15,1353.96"/>
        <lane id=":69387071_10_1" index="1" speed="11.11" length="21.86" width="4.00" shape="433.17,1334.33 436.06,1339.72 437.83,1343.75 438.77,1348.00 439.16,1354.07"/>
    </edge>
    <edge id=":69387071_12" function="internal">
        <lane id=":69387071_12_0" index="0" speed="8.91" length="7.68" width="4.00" shape="433.17,1334.33 435.13,1340.08 434.74,1341.64"/>
    </edge>
    <edge id=":69387071_13" function="internal">
        <lane id=":69387071_13_0" index="0" speed="4.08" length="2.92" width="4.00" shape="433.17,1334.33 433.00,1336.12 432.36,1337.04"/>
    </edge>
    <edge id=":69387071_22" function="internal">
        <lane id=":69387071_22_0" index="0" speed="8.91" length="15.19" width="4.00" shape="434.74,1341.64 434.06,1344.44 429.97,1347.39 422.87,1348.95"/>
    </edge>
    <edge id=":69387071_23" function="internal">
        <lane id=":69387071_23_0" index="0" speed="4.08" length="2.92" width="4.00" shape="432.36,1337.04 431.24,1337.07 429.65,1336.22"/>
    </edge>
    <edge id=":69387071_14" function="internal">
        <lane id=":69387071_14_0" index="0" speed="6.15" length="9.99" width="4.00" shape="422.47,1344.97 425.31,1344.28 426.86,1342.91 427.14,1340.85 426.12,1338.11"/>
    </edge>
    <edge id=":69387071_15" function="internal">
        <lane id=":69387071_15_0" index="0" speed="11.11" length="26.48" width="4.00" shape="422.47,1344.97 448.90,1343.28"/>
    </edge>
    <edge id=":69387071_16" function="internal">
        <lane id=":69387071_16_0" index="0" speed="9.59" length="11.85" width="4.00" shape="422.47,1344.97 429.66,1344.93 434.14,1346.23"/>
    </edge>
    <edge id=":69387071_17" function="internal">
        <lane id=":69387071_17_0" index="0" speed="4.08" length="2.92" width="4.00" shape="422.47,1344.97 424.06,1345.82 424.66,1346.76"/>
    </edge>
    <edge id=":69387071_24" function="internal">
        <lane id=":69387071_24_0" index="0" speed="9.59" length="9.85" width="4.00" shape="434.14,1346.23 434.84,1346.43 438.00,1349.47 439.16,1354.07"/>
    </edge>
    <edge id=":69387071_25" function="internal">
        <lane id=":69387071_25_0" index="0" speed="4.08" length="2.92" width="4.00" shape="424.66,1346.76 424.26,1347.81 422.87,1348.95"/>
    </edge>
    <edge id=":69387078_0" function="internal">
        <lane id=":69387078_0_0" index="0" speed="4.08" length="5.84" width="4.00" shape="515.15,1341.86 516.67,1342.83 517.19,1343.82 516.71,1344.83 515.23,1345.86"/>
    </edge>
    <edge id=":69421271_0" function="internal">
        <lane id=":69421271_0_0" index="0" speed="4.08" length="5.84" width="4.00" shape="315.26,1602.38 313.71,1601.45 313.16,1600.48 313.61,1599.46 315.06,1598.38"/>
    </edge>
    <edge id=":69421277_0" function="internal">
        <lane id=":69421277_0_0" index="0" speed="10.87" length="19.24" width="4.00" shape="439.17,1599.86 434.41,1600.84 430.52,1603.10 427.51,1606.62 425.38,1611.41"/>
    </edge>
    <edge id=":69421277_1" function="internal">
        <lane id=":69421277_1_0" index="0" speed="11.11" length="30.08" width="4.00" shape="439.17,1599.86 409.11,1601.63"/>
        <lane id=":69421277_1_1" index="1" speed="11.11" length="30.08" width="4.00" shape="438.90,1595.86 408.91,1597.63"/>
    </edge>
    <edge id=":69421277_3" function="internal">
        <lane id=":69421277_3_0" index="0" speed="10.55" length="9.29" width="4.00" shape="438.90,1595.86 430.87,1595.12 429.88,1594.39"/>
    </edge>
    <edge id=":69421277_4" function="internal">
        <lane id=":69421277_4_0" index="0" speed="4.08" length="2.92" width="4.00" shape="438.90,1595.86 437.34,1594.97 436.77,1594.00"/>
    </edge>
    <edge id=":69421277_20" function="internal">
        <lane id=":69421277_20_0" index="0" speed="10.55" length="19.65" width="4.00" shape="429.88,1594.39 426.16,1591.63 424.24,1585.53 424.56,1576.92"/>
    </edge>
    <edge id=":69421277_21" function="internal">
        <lane id=":69421277_21_0" index="0" speed="4.08" length="2.92" width="4.00" shape="436.77,1594.00 437.20,1592.97 438.63,1591.87"/>
    </edge>
    <edge id=":69421277_5" function="internal">
        <lane id=":69421277_5_0" index="0" speed="6.43" length="9.80" width="4.00" shape="432.49,1577.94 432.53,1580.71 433.48,1582.62 435.33,1583.68 438.09,1583.89"/>
    </edge>
    <edge id=":69421277_6" function="internal">
        <lane id=":69421277_6_0" index="0" speed="11.11" length="33.90" width="4.00" shape="432.49,1577.94 431.26,1586.01 429.57,1594.82 427.57,1603.55 425.38,1611.41"/>
        <lane id=":69421277_6_1" index="1" speed="11.11" length="33.90" width="4.00" shape="428.53,1577.43 427.32,1585.39 425.68,1593.96 423.72,1602.46 421.56,1610.22"/>
    </edge>
    <edge id=":69421277_8" function="internal">
        <lane id=":69421277_8_0" index="0" speed="11.11" length="11.87" width="4.00" shape="428.53,1577.43 426.36,1585.94 424.69,1588.54"/>
    </edge>
    <edge id=":69421277_9" function="internal">
        <lane id=":69421277_9_0" index="0" speed="4.08" length="2.92" width="4.00" shape="428.53,1577.43 427.34,1578.79 426.29,1579.16"/>
    </edge>
    <edge id=":69421277_22" function="internal">
        <lane id=":69421277_22_0" index="0" speed="11.11" length="19.10" width="4.00" shape="424.69,1588.54 422.37,1592.15 416.55,1596.04 408.91,1597.63"/>
    </edge>
    <edge id=":69421277_23" function="internal">
        <lane id=":69421277_23_0" index="0" speed="4.08" length="2.92" width="4.00" shape="426.29,1579.16 425.36,1578.53 424.56,1576.92"/>
    </edge>
    <edge id=":69421277_10" function="internal">
        <lane id=":69421277_10_0" index="0" speed="10.07" length="19.69" width="4.00" shape="408.50,1589.64 413.18,1588.62 416.75,1586.07 419.22,1582.00 420.59,1576.41"/>
    </edge>
    <edge id=":69421277_11" function="internal">
        <lane id=":69421277_11_0" index="0" speed="11.11" length="29.95" width="4.00" shape="408.50,1589.64 438.36,1587.88"/>
        <lane id=":69421277_11_1" index="1" speed="11.11" length="29.95" width="4.00" shape="408.70,1593.64 438.63,1591.87"/>
    </edge>
    <edge id=":69421277_13" function="internal">
        <lane id=":69421277_13_0" index="0" speed="9.66" length="9.18" width="4.00" shape="408.70,1593.64 416.38,1594.32 417.62,1595.11"/>
    </edge>
    <edge id=":69421277_14" function="internal">
        <lane id=":69421277_14_0" index="0" speed="4.08" length="2.92" width="4.00" shape="408.70,1593.64 410.25,1594.56 410.80,1595.53"/>
    </edge>
    <edge id=":69421277_24" function="internal">
        <lane id=":69421277_24_0" index="0" speed="9.66" length="17.38" width="4.00" shape="417.62,1595.11 421.08,1597.32 422.81,1602.62 421.56,1610.22"/>
    </edge>
    <edge id=":69421277_25" function="internal">
        <lane id=":69421277_25_0" index="0" speed="4.08" length="2.92" width="4.00" shape="410.80,1595.53 410.35,1596.56 408.91,1597.63"/>
    </edge>
    <edge id=":69421277_15" function="internal">
        <lane id=":69421277_15_0" index="0" speed="6.20" length="9.94" width="4.00" shape="413.92,1607.83 414.39,1604.99 413.74,1603.00 411.98,1601.88 409.11,1601.63"/>
    </edge>
    <edge id=":69421277_16" function="internal">
        <lane id=":69421277_16_0" index="0" speed="11.11" length="32.51" width="4.00" shape="413.92,1607.83 416.04,1600.29 417.89,1592.26 419.43,1584.16 420.59,1576.41"/>
        <lane id=":69421277_16_1" index="1" speed="11.11" length="32.51" width="4.00" shape="417.74,1609.03 419.88,1601.38 421.79,1593.11 423.37,1584.78 424.56,1576.92"/>
    </edge>
    <edge id=":69421277_18" function="internal">
        <lane id=":69421277_18_0" index="0" speed="11.11" length="9.58" width="4.00" shape="417.74,1609.03 420.93,1601.92 422.11,1600.57"/>
    </edge>
    <edge id=":69421277_19" function="internal">
        <lane id=":69421277_19_0" index="0" speed="4.08" length="2.92" width="4.00" shape="417.74,1609.03 419.14,1607.89 420.25,1607.71"/>
    </edge>
    <edge id=":69421277_26" function="internal">
        <lane id=":69421277_26_0" index="0" speed="11.11" length="19.32" width="4.00" shape="422.11,1600.57 425.47,1596.70 431.37,1593.35 438.63,1591.87"/>
    </edge>
    <edge id=":69421277_27" function="internal">
        <lane id=":69421277_27_0" index="0" speed="4.08" length="2.92" width="4.00" shape="420.25,1607.71 421.05,1608.49 421.56,1610.22"/>
    </edge>
    <edge id=":69515841_0" function="internal">
        <lane id=":69515841_0_0" index="0" speed="4.08" length="5.84" width="4.00" shape="343.99,810.01 344.91,808.46 345.89,807.91 346.91,808.36 347.99,809.81"/>
    </edge>
    <edge id=":69515842_0" function="internal">
        <lane id=":69515842_0_0" index="0" speed="9.39" length="15.67" width="4.00" shape="353.59,1066.65 352.75,1062.86 350.79,1059.87 347.70,1057.69 343.48,1056.31"/>
    </edge>
    <edge id=":69515842_1" function="internal">
        <lane id=":69515842_1_0" index="0" speed="11.11" length="27.37" width="4.00" shape="353.59,1066.65 352.00,1039.30"/>
        <lane id=":69515842_1_1" index="1" speed="11.11" length="27.37" width="4.00" shape="357.58,1066.39 355.99,1039.09"/>
    </edge>
    <edge id=":69515842_3" function="internal">
        <lane id=":69515842_3_0" index="0" speed="9.86" length="8.67" width="4.00" shape="357.58,1066.39 358.10,1059.79 359.09,1057.99"/>
    </edge>
    <edge id=":69515842_4" function="internal">
        <lane id=":69515842_4_0" index="0" speed="4.08" length="2.92" width="4.00" shape="357.58,1066.39 358.48,1064.83 359.45,1064.27"/>
    </edge>
    <edge id=":69515842_20" function="internal">
        <lane id=":69515842_20_0" index="0" speed="9.86" length="15.08" width="4.00" shape="359.09,1057.99 360.65,1055.19 365.21,1052.58 371.80,1051.97"/>
    </edge>
    <edge id=":69515842_21" function="internal">
        <lane id=":69515842_21_0" index="0" speed="4.08" length="2.92" width="4.00" shape="359.45,1064.27 360.48,1064.70 361.57,1066.13"/>
    </edge>
    <edge id=":69515842_5" function="internal">
        <lane id=":69515842_5_0" index="0" speed="6.57" length="9.74" width="4.00" shape="371.40,1059.96 368.69,1060.21 366.82,1061.28 365.78,1063.17 365.56,1065.88"/>
    </edge>
    <edge id=":69515842_6" function="internal">
        <lane id=":69515842_6_0" index="0" speed="11.11" length="27.88" width="4.00" shape="371.40,1059.96 364.20,1059.46 357.37,1058.70 350.57,1057.66 343.48,1056.31"/>
        <lane id=":69515842_6_1" index="1" speed="11.11" length="27.88" width="4.00" shape="371.60,1055.97 364.50,1055.48 357.87,1054.74 351.28,1053.73 344.29,1052.39"/>
    </edge>
    <edge id=":69515842_8" function="internal">
        <lane id=":69515842_8_0" index="0" speed="11.07" length="8.96" width="4.00" shape="371.60,1055.97 365.09,1054.63 363.18,1053.33"/>
    </edge>
    <edge id=":69515842_9" function="internal">
        <lane id=":69515842_9_0" index="0" speed="4.08" length="2.92" width="4.00" shape="371.60,1055.97 370.15,1054.89 369.70,1053.87"/>
    </edge>
    <edge id=":69515842_22" function="internal">
        <lane id=":69515842_22_0" index="0" speed="11.07" length="16.69" width="4.00" shape="363.18,1053.33 360.32,1051.37 357.28,1046.19 355.99,1039.09"/>
    </edge>
    <edge id=":69515842_23" function="internal">
        <lane id=":69515842_23_0" index="0" speed="4.08" length="2.92" width="4.00" shape="369.70,1053.87 370.25,1052.89 371.80,1051.97"/>
    </edge>
    <edge id=":69515842_10" function="internal">
        <lane id=":69515842_10_0" index="0" speed="8.24" length="13.69" width="4.00" shape="363.98,1038.67 364.66,1042.60 366.22,1045.46 368.67,1047.25 372.01,1047.98"/>
    </edge>
    <edge id=":69515842_11" function="internal">
        <lane id=":69515842_11_0" index="0" speed="11.11" length="27.27" width="4.00" shape="363.98,1038.67 365.56,1065.88"/>
        <lane id=":69515842_11_1" index="1" speed="11.11" length="27.27" width="4.00" shape="359.99,1038.88 361.57,1066.13"/>
    </edge>
    <edge id=":69515842_13" function="internal">
        <lane id=":69515842_13_0" index="0" speed="9.72" length="8.86" width="4.00" shape="359.99,1038.88 359.34,1046.07 358.48,1047.47"/>
    </edge>
    <edge id=":69515842_14" function="internal">
        <lane id=":69515842_14_0" index="0" speed="4.08" length="2.92" width="4.00" shape="359.99,1038.88 359.07,1040.43 358.09,1040.98"/>
    </edge>
    <edge id=":69515842_24" function="internal">
        <lane id=":69515842_24_0" index="0" speed="9.72" length="16.46" width="4.00" shape="358.48,1047.47 356.50,1050.71 351.49,1052.82 344.29,1052.39"/>
    </edge>
    <edge id=":69515842_25" function="internal">
        <lane id=":69515842_25_0" index="0" speed="4.08" length="2.92" width="4.00" shape="358.09,1040.98 357.07,1040.54 355.99,1039.09"/>
    </edge>
    <edge id=":69515842_15" function="internal">
        <lane id=":69515842_15_0" index="0" speed="6.34" length="9.85" width="4.00" shape="345.89,1044.56 348.69,1044.72 350.64,1043.90 351.75,1042.09 352.00,1039.30"/>
    </edge>
    <edge id=":69515842_16" function="internal">
        <lane id=":69515842_16_0" index="0" speed="11.11" length="26.67" width="4.00" shape="345.89,1044.56 352.70,1045.86 358.88,1046.83 365.09,1047.51 372.01,1047.98"/>
        <lane id=":69515842_16_1" index="1" speed="11.11" length="26.67" width="4.00" shape="345.09,1048.47 351.99,1049.80 358.37,1050.78 364.79,1051.49 371.80,1051.97"/>
    </edge>
    <edge id=":69515842_18" function="internal">
        <lane id=":69515842_18_0" index="0" speed="11.11" length="9.44" width="4.00" shape="345.09,1048.47 351.95,1050.77 353.72,1052.08"/>
    </edge>
    <edge id=":69515842_19" function="internal">
        <lane id=":69515842_19_0" index="0" speed="4.08" length="2.92" width="4.00" shape="345.09,1048.47 346.36,1049.75 346.65,1050.83"/>
    </edge>
    <edge id=":69515842_26" function="internal">
        <lane id=":69515842_26_0" index="0" speed="11.11" length="16.77" width="4.00" shape="353.72,1052.08 356.98,1054.48 360.19,1059.60 361.57,1066.13"/>
    </edge>
    <edge id=":69515842_27" function="internal">
        <lane id=":69515842_27_0" index="0" speed="4.08" length="2.92" width="4.00" shape="346.65,1050.83 345.96,1051.71 344.29,1052.39"/>
    </edge>
    <edge id=":69538856_0" function="internal">
        <lane id=":69538856_0_0" index="0" speed="11.11" length="0.22" width="4.00" shape="274.74,1042.24 274.63,1042.22"/>
        <lane id=":69538856_0_1" index="1" speed="11.11" length="0.22" width="4.00" shape="275.54,1038.32 275.22,1038.27"/>
    </edge>
    <edge id=":69538856_2" function="internal">
        <lane id=":69538856_2_0" index="0" speed="4.08" length="2.92" width="4.00" shape="275.54,1038.32 274.27,1037.04 273.98,1035.96"/>
    </edge>
    <edge id=":69538856_6" function="internal">
        <lane id=":69538856_6_0" index="0" speed="4.08" length="2.92" width="4.00" shape="273.98,1035.96 274.67,1035.08 276.34,1034.40"/>
    </edge>
    <edge id=":69538856_3" function="internal">
        <lane id=":69538856_3_0" index="0" speed="11.11" length="0.65" width="4.00" shape="276.40,1030.35 277.14,1030.49"/>
        <lane id=":69538856_3_1" index="1" speed="11.11" length="0.65" width="4.00" shape="275.81,1034.31 276.34,1034.40"/>
    </edge>
    <edge id=":69538856_5" function="internal">
        <lane id=":69538856_5_0" index="0" speed="4.08" length="2.92" width="4.00" shape="275.81,1034.31 277.15,1035.52 277.49,1036.58"/>
    </edge>
    <edge id=":69538856_7" function="internal">