<routes>
    <route id="route1" edges="0to1 1to2 2to3 3to4 4to5"/>
    <route id="route2" edges="5to4 4to3 3to2 2to1 1to0"/>
    <route id="route1A" edges="StoC_1 CtoN_1"/>
    <route id="route1B" edges="NtoC_1 CtoS_1"/>
    <route id="route2A" edges="StoC_2 CtoN_2"/>
    <route id="route2B" edges="NtoC_2 CtoS_2"/>
    <route id="route3A" edges="StoC_3 CtoN_3"/>
    <route id="route3B" edges="NtoC_3 CtoS_3"/>
    <route id="route4A" edges="StoC_4 CtoN_4"/>
    <route id="route4B" edges="NtoC_4 CtoS_4"/>

    <flow id="01A" type="passenger" begin="0" end="3600" probability="0.025" route="route1" departLane="random"/>
    <flow id="01B" type="moped" begin="0" end="3600" probability="0.1" route="route1" departLane="random"/>
    <flow id="01A1" type="passenger" begin="0" end="3600" probability="0.025" route="route2" departLane="random"/>
    <flow id="01B1" type="moped" begin="0" end="3600" probability="0.1" route="route2" departLane="random"/>

    <flow id="03A" type="passenger" begin="0" end="3600" probability="0.005" route="route1A" departLane="random"/>
    <flow id="03B" type="moped" begin="0" end="3600" probability="0.02" route="route1A" departLane="random"/>

    <flow id="04A" type="passenger" begin="0" end="3600" probability="0.005" route="route1B" departLane="random"/>
    <flow id="04B" type="moped" begin="0" end="3600" probability="0.02" route="route1B" departLane="random"/>

    <flow id="05A" type="passenger" begin="0" end="3600" probability="0.005" route="route2A" departLane="random"/>
    <flow id="05B" type="moped" begin="0" end="3600" probability="0.02" route="route2A" departLane="random"/>

    <flow id="06A" type="passenger" begin="0" end="3600" probability="0.005" route="route2B" departLane="random"/>
    <flow id="06B" type="moped" begin="0" end="3600" probability="0.02" route="route2B" departLane="random"/>

    <flow id="07A" type="passenger" begin="0" end="3600" probability="0.005" route="route3A" departLane="random"/>
    <flow id="07B" type="moped" begin="0" end="3600" probability="0.02" route="route3A" departLane="random"/>

    <flow id="08A" type="passenger" begin="0" end="3600" probability="0.005" route="route3B" departLane="random"/>
    <flow id="08B" type="moped" begin="0" end="3600" probability="0.02" route="route3B" departLane="random"/>

    <flow id="09A" type="passenger" begin="0" end="3600" probability="0.005" route="route4A" departLane="random"/>
    <flow id="09B" type="moped" begin="0" end="3600" probability="0.02" route="route4A" departLane="random"/>

    <flow id="10A" type="passenger" begin="0" end="3600" probability="0.005" route="route4B" departLane="random"/>
    <flow id="10B" type="moped" begin="0" end="3600" probability="0.02" route="route4B" departLane="random"/>
</routes>
