<routes>
    <route id="routeSN" edges="StoC CtoN"/>
    <route id="routeNS" edges="NtoC CtoS"/>
    <route id="routeWE" edges="WtoC CtoE"/>
    <route id="routeEW" edges="EtoC CtoW"/>

    <flow id="03A" type="passenger" begin="0" end="600" departSpeed="5" probability="0.1" route="routeSN" departLane="random"/>

    <flow id="04A" type="passenger" begin="0" end="600" departSpeed="5" probability="0.1" route="routeNS" departLane="random"/>

    <flow id="05A" type="passenger" begin="701" end="1200" departSpeed="5" probability="0.1" route="routeWE" departLane="random"/>

    <flow id="06A" type="passenger" begin="701" end="1200" departSpeed="5" probability="0.1" route="routeEW" departLane="random"/>
</routes>
