<configuration xmlns:xsi="http://www.w3.org/2001/XMLSchema-instance" xsi:noNamespaceSchemaLocation="http://sumo.dlr.de/xsd/sumoConfiguration.xsd">
    <processing>
        <time-to-teleport value="-1" />
        <ignore-junction-blocker value="1" />
        <lateral-resolution value="0.6"/>
        <waiting-time-memory value="500" />
    </processing>
    <duration-log.statistics value="true"/>
    <tripinfo-output.write-unfinished value="true"/>
</configuration>
